ROOT
ATOM      1  C8  <0> d          -3.446  -6.357  -0.038  0.00  0.00     0.076 A 
ATOM      2  C9  <0> d          -2.245  -7.051  -0.018  0.00  0.00    -0.048 A 
ATOM      3  C10 <0> d          -2.243  -8.431  -0.058  0.00  0.00    -0.054 A 
ATOM      4  C11 <0> d          -3.444  -9.125  -0.118  0.00  0.00     0.036 A 
ATOM      5  C12 <0> d          -4.646  -8.430  -0.138  0.00  0.00    -0.054 A 
ATOM      6  C13 <0> d          -4.647  -7.050  -0.093  0.00  0.00    -0.048 A 
ATOM      7  H8  <0> d          -1.310  -6.511   0.029  0.00  0.00     0.087 H 
ATOM      8  H9  <0> d          -1.308  -8.970  -0.042  0.00  0.00     0.087 H 
ATOM      9  H10 <0> d          -5.581  -8.969  -0.185  0.00  0.00     0.087 H 
ATOM     10  H11 <0> d          -5.582  -6.510  -0.104  0.00  0.00     0.087 H 
ENDROOT
BRANCH   4  11
ATOM     11  N3  <0> d          -3.443 -10.525  -0.159  0.00  0.00    -0.309 N 
ATOM     12  C14 <0> d          -2.511 -11.219   0.524  0.00  0.00     0.325 C 
ATOM     13  O3  <0> d          -1.622 -10.630   1.108  0.00  0.00    -0.247 OA
ATOM     14  N4  <0> d          -2.564 -12.565   0.559  0.00  0.00    -0.309 N 
ATOM     15  H13 <0> d          -3.225 -13.038   0.030  0.00  0.00     0.170 HD
ATOM     16  H12 <0> d          -4.114 -10.996  -0.678  0.00  0.00     0.170 HD
BRANCH  14  17
ATOM     17  C15 <0> d          -1.665 -13.280   1.360  0.00  0.00     0.037 A 
ATOM     18  C20 <0> d          -1.190 -14.515   0.939  0.00  0.00    -0.041 A 
ATOM     19  C19 <0> d          -0.299 -15.216   1.729  0.00  0.00     0.071 A 
ATOM     20  H16 <0> d          -1.512 -14.925  -0.006  0.00  0.00     0.088 H 
ATOM     21  C18 <0> d           0.110 -14.694   2.943  0.00  0.00     0.049 A 
ATOM     22  C17 <0> d          -0.367 -13.466   3.367  0.00  0.00    -0.059 A 
ATOM     23 Cl1  <0> d           1.223 -15.581   3.937  0.00  0.00    -0.083 Cl
ATOM     24  C16 <0> d          -1.253 -12.758   2.579  0.00  0.00    -0.055 A 
ATOM     25  H15 <0> d          -0.046 -13.060   4.315  0.00  0.00     0.086 H 
ATOM     26  H14 <0> d          -1.624 -11.800   2.910  0.00  0.00     0.087 H 
BRANCH  19  27
ATOM     27  C21 <0> d           0.222 -16.553   1.270  0.00  0.00     0.419 C 
ATOM     28  F1  <0> d          -0.330 -16.866   0.023  0.00  0.00    -0.166 F 
ATOM     29  F2  <0> d           1.616 -16.498   1.163  0.00  0.00    -0.166 F 
ATOM     30  F3  <0> d          -0.135 -17.537   2.199  0.00  0.00    -0.166 F 
ENDBRANCH  19  27
ENDBRANCH  14  17
ENDBRANCH   4  11
BRANCH   1  31
ATOM     31  O2  <0> d          -3.447  -4.998   0.001  0.00  0.00    -0.311 OA
BRANCH  31  32
ATOM     32  C5  <0> d          -3.111  -4.328  -1.131  0.00  0.00     0.079 A 
ATOM     33  C4  <0> d          -2.679  -5.013  -2.264  0.00  0.00    -0.017 A 
ATOM     34  C3  <0> d          -2.345  -4.288  -3.403  0.00  0.00     0.126 A 
ATOM     35  H5  <0> d          -2.605  -6.090  -2.258  0.00  0.00     0.091 H 
ATOM     36  N2  <0> d          -2.430  -2.963  -3.410  0.00  0.00    -0.255 NA
ATOM     37  C7  <0> d          -2.840  -2.288  -2.357  0.00  0.00     0.006 A 
ATOM     38  C6  <0> d          -3.190  -2.939  -1.188  0.00  0.00    -0.033 A 
ATOM     39  H7  <0> d          -2.901  -1.211  -2.405  0.00  0.00     0.114 H 
ATOM     40  H6  <0> d          -3.522  -2.376  -0.328  0.00  0.00     0.090 H 
BRANCH  34  41
ATOM     41  C2  <0> d          -1.883  -5.000  -4.617  0.00  0.00     0.269 C 
ATOM     42  N1  <0> d          -1.552  -4.304  -5.723  0.00  0.00    -0.360 N 
ATOM     43  H4  <0> d          -1.616  -3.336  -5.723  0.00  0.00     0.162 HD
ATOM     44  O1  <0> d          -1.802  -6.213  -4.617  0.00  0.00    -0.266 OA
BRANCH  42  45
ATOM     45  C1  <0> d          -1.095  -5.008  -6.923  0.00  0.00    -0.018 C 
ATOM     46  H1  <0> d          -0.876  -4.284  -7.708  0.00  0.00     0.056 H 
ATOM     47  H2  <0> d          -0.195  -5.576  -6.691  0.00  0.00     0.056 H 
ATOM     48  H3  <0> d          -1.876  -5.688  -7.264  0.00  0.00     0.056 H 
ENDBRANCH  42  45
ENDBRANCH  34  41
ENDBRANCH  31  32
ENDBRANCH   1  31
TORSDOF 7
