ROOT
ATOM      1  C8  <0> d          -3.446  -6.357  -0.038  0.00  0.00     0.076 A 
ATOM      2  C9  <0> d          -2.245  -7.051  -0.018  0.00  0.00    -0.048 A 
ATOM      3  C10 <0> d          -2.243  -8.431  -0.058  0.00  0.00    -0.054 A 
ATOM      4  C11 <0> d          -3.444  -9.125  -0.118  0.00  0.00     0.036 A 
ATOM      5  C12 <0> d          -4.646  -8.430  -0.138  0.00  0.00    -0.054 A 
ATOM      6  C13 <0> d          -4.647  -7.050  -0.093  0.00  0.00    -0.048 A 
ATOM      7  H8  <0> d          -1.310  -6.511   0.029  0.00  0.00     0.087 H 
ATOM      8  H9  <0> d          -1.308  -8.970  -0.042  0.00  0.00     0.087 H 
ATOM      9  H10 <0> d          -5.581  -8.969  -0.185  0.00  0.00     0.087 H 
ATOM     10  H11 <0> d          -5.582  -6.510  -0.104  0.00  0.00     0.087 H 
ENDROOT
BRANCH   4  11
ATOM     11  N3  <0> d          -3.443 -10.525  -0.159  0.00  0.00    -0.309 N 
ATOM     12  C14 <0> d          -2.511 -11.219   0.524  0.00  0.00     0.325 C 
ATOM     13  O3  <0> d          -1.622 -10.630   1.108  0.00  0.00    -0.247 OA
ATOM     14  N4  <0> d          -2.564 -12.565   0.559  0.00  0.00    -0.309 N 
ATOM     15  H13 <0> d          -3.225 -13.038   0.030  0.00  0.00     0.170 HD
ATOM     16  H12 <0> d          -4.114 -10.996  -0.678  0.00  0.00     0.170 HD
BRANCH  14  17
ATOM     17  C15 <0> d          -1.665 -13.280   1.360  0.00  0.00     0.037 A 
ATOM     18  C20 <0> d          -1.190 -14.515   0.939  0.00  0.00    -0.041 A 
ATOM     19  C19 <0> d          -0.299 -15.216   1.729  0.00  0.00     0.071 A 
ATOM     20  H16 <0> d          -1.512 -14.925  -0.006  0.00  0.00     0.088 H 
ATOM     21  C18 <0> d           0.110 -14.694   2.943  0.00  0.00     0.049 A 
ATOM     22  C17 <0> d          -0.367 -13.466   3.367  0.00  0.00    -0.059 A 
ATOM     23 Cl1  <0> d           1.223 -15.581   3.937  0.00  0.00    -0.083 Cl
ATOM     24  C16 <0> d          -1.253 -12.758   2.579  0.00  0.00    -0.055 A 
ATOM     25  H15 <0> d          -0.046 -13.060   4.315  0.00  0.00     0.086 H 
ATOM     26  H14 <0> d          -1.624 -11.800   2.910  0.00  0.00     0.087 H 
BRANCH  19  27
ATOM     27  C21 <0> d           0.222 -16.553   1.270  0.00  0.00     0.419 C 
ATOM     28  F1  <0> d          -0.330 -16.866   0.023  0.00  0.00    -0.166 F 
ATOM     29  F2  <0> d           1.616 -16.498   1.163  0.00  0.00    -0.166 F 
ATOM     30  F3  <0> d          -0.135 -17.537   2.199  0.00  0.00    -0.166 F 
ENDBRANCH  19  27
ENDBRANCH  14  17
ENDBRANCH   4  11
BRANCH   1  31
ATOM     31  O2  <0> d          -3.447  -4.998   0.001  0.00  0.00    -0.311 OA
BRANCH  31  32
ATOM     32  C5  <0> d          -3.111  -4.328  -1.131  0.00  0.00     0.079 A 
ATOM     33  C4  <0> d          -2.679  -5.013  -2.264  0.00  0.00    -0.017 A 
ATOM     34  C3  <0> d          -2.345  -4.288  -3.403  0.00  0.00     0.126 A 
ATOM     35  H5  <0> d          -2.605  -6.090  -2.258  0.00  0.00     0.091 H 
ATOM     36  N2  <0> d          -2.430  -2.963  -3.410  0.00  0.00    -0.255 NA
ATOM     37  C7  <0> d          -2.840  -2.288  -2.357  0.00  0.00     0.006 A 
ATOM     38  C6  <0> d          -3.190  -2.939  -1.188  0.00  0.00    -0.033 A 
ATOM     39  H7  <0> d          -2.901  -1.211  -2.405  0.00  0.00     0.114 H 
ATOM     40  H6  <0> d          -3.522  -2.376  -0.328  0.00  0.00     0.090 H 
BRANCH  34  41
ATOM     41  C2  <0> d          -1.883  -5.000  -4.617  0.00  0.00     0.269 C 
ATOM     42  N1  <0> d          -1.552  -4.304  -5.723  0.00  0.00    -0.360 N 
ATOM     43  H4  <0> d          -1.616  -3.336  -5.723  0.00  0.00     0.162 HD
ATOM     44  O1  <0> d          -1.802  -6.213  -4.617  0.00  0.00    -0.266 OA
BRANCH  42  45
ATOM     45  C1  <0> d          -1.095  -5.008  -6.923  0.00  0.00    -0.018 C 
ATOM     46  H1  <0> d          -0.876  -4.284  -7.708  0.00  0.00     0.056 H 
ATOM     47  H2  <0> d          -0.195  -5.576  -6.691  0.00  0.00     0.056 H 
ATOM     48  H3  <0> d          -1.876  -5.688  -7.264  0.00  0.00     0.056 H 
ENDBRANCH  42  45
ENDBRANCH  34  41
ENDBRANCH  31  32
ENDBRANCH   1  31
TORSDOF 7
ROOT
ATOM      1  C15 <0> d   1       0.930   2.144  -5.675  0.00  0.00     0.094 C 
ATOM      2  H2  <0> d   1       1.172   3.187  -5.879  0.00  0.00     0.088 H 
ENDROOT
BRANCH   1   3
ATOM      3  N1  <0> d   1       1.836   1.625  -4.647  0.00  0.00    -0.347 N 
ATOM      4  C14 <0> d   1       3.116   2.045  -4.603  0.00  0.00     0.223 C 
ATOM      5  O3  <0> d   1       3.533   2.809  -5.448  0.00  0.00    -0.273 OA
ATOM      6  H25 <0> d   1       1.514   0.980  -3.998  0.00  0.00     0.163 HD
BRANCH   4   7
ATOM      7  C6  <0> d   1       4.028   1.566  -3.503  0.00  0.00     0.040 C 
ATOM      8  H1  <0> d   1       4.174   0.489  -3.595  0.00  0.00     0.056 H 
BRANCH   7   9
ATOM      9  C5  <0> d   1       3.399   1.881  -2.145  0.00  0.00     0.041 C 
ATOM     10  H16 <0> d   1       4.105   1.634  -1.352  0.00  0.00     0.057 H 
ATOM     11  H17 <0> d   1       2.491   1.292  -2.019  0.00  0.00     0.057 H 
BRANCH   9  12
ATOM     12  S1  <0> d   1       2.990   3.647  -2.063  0.00  0.00     0.152 S 
ATOM     13  O1  <0> d   1       2.029   3.933  -3.070  0.00  0.00    -0.227 OA
ATOM     14  O2  <0> d   1       4.202   4.388  -2.034  0.00  0.00    -0.227 OA
BRANCH  12  15
ATOM     15  C2  <0> d   1       2.187   3.797  -0.444  0.00  0.00     0.053 C 
BRANCH  15  16
ATOM     16  C1  <0> d   1       3.163   3.365   0.652  0.00  0.00    -0.057 C 
ATOM     17  H7  <0> d   1       3.458   2.329   0.488  0.00  0.00     0.029 H 
ATOM     18  H8  <0> d   1       4.046   4.003   0.625  0.00  0.00     0.029 H 
ATOM     19  H9  <0> d   1       2.680   3.455   1.625  0.00  0.00     0.029 H 
ENDBRANCH  15  16
BRANCH  15  20
ATOM     20  C3  <0> d   1       0.947   2.901  -0.404  0.00  0.00    -0.057 C 
ATOM     21  H10 <0> d   1       0.464   2.991   0.569  0.00  0.00     0.029 H 
ATOM     22  H11 <0> d   1       0.251   3.208  -1.185  0.00  0.00     0.029 H 
ATOM     23  H12 <0> d   1       1.242   1.865  -0.569  0.00  0.00     0.029 H 
ENDBRANCH  15  20
BRANCH  15  24
ATOM     24  C4  <0> d   1       1.772   5.252  -0.213  0.00  0.00    -0.057 C 
ATOM     25  H13 <0> d   1       2.655   5.890  -0.241  0.00  0.00     0.029 H 
ATOM     26  H14 <0> d   1       1.076   5.559  -0.994  0.00  0.00     0.029 H 
ATOM     27  H15 <0> d   1       1.289   5.342   0.760  0.00  0.00     0.029 H 
ENDBRANCH  15  24
ENDBRANCH  12  15
ENDBRANCH   9  12
ENDBRANCH   7   9
BRANCH   7  28
ATOM     28  C7  <0> d   1       5.380   2.275  -3.617  0.00  0.00    -0.029 C 
ATOM     29  H18 <0> d   1       5.787   2.123  -4.616  0.00  0.00     0.041 H 
ATOM     30  H19 <0> d   1       5.246   3.341  -3.436  0.00  0.00     0.041 H 
BRANCH  28  31
ATOM     31  C8  <0> d   1       6.331   1.708  -2.595  0.00  0.00    -0.057 A 
ATOM     32  C13 <0> d   1       7.131   0.628  -2.920  0.00  0.00    -0.077 A 
ATOM     33  C12 <0> d   1       8.008   0.111  -1.985  0.00  0.00    -0.082 A 
ATOM     34  H24 <0> d   1       7.074   0.191  -3.906  0.00  0.00     0.084 H 
ATOM     35  C11 <0> d   1       8.078   0.667  -0.721  0.00  0.00    -0.083 A 
ATOM     36  H23 <0> d   1       8.636  -0.730  -2.240  0.00  0.00     0.083 H 
ATOM     37  C10 <0> d   1       7.274   1.743  -0.395  0.00  0.00    -0.082 A 
ATOM     38  H22 <0> d   1       8.760   0.261   0.010  0.00  0.00     0.083 H 
ATOM     39  C9  <0> d   1       6.401   2.263  -1.331  0.00  0.00    -0.077 A 
ATOM     40  H21 <0> d   1       7.328   2.178   0.593  0.00  0.00     0.083 H 
ATOM     41  H20 <0> d   1       5.773   3.104  -1.076  0.00  0.00     0.084 H 
ENDBRANCH  28  31
ENDBRANCH   7  28
ENDBRANCH   4   7
ENDBRANCH   1   3
BRANCH   1  42
ATOM     42  C16 <0> d   1       1.090   1.324  -6.957  0.00  0.00     0.002 C 
ATOM     43  H26 <0> d   1       0.935   0.268  -6.734  0.00  0.00     0.046 H 
ATOM     44  H27 <0> d   1       0.355   1.651  -7.692  0.00  0.00     0.046 H 
BRANCH  42  45
ATOM     45  C17 <0> d   1       2.477   1.522  -7.511  0.00  0.00     0.030 A 
ATOM     46  N3  <0> d   1       3.565   0.720  -7.294  0.00  0.00    -0.353 N 
ATOM     47  C19 <0> d   1       4.599   1.257  -7.976  0.00  0.00     0.063 A 
ATOM     48  H3  <0> d   1       3.588  -0.085  -6.753  0.00  0.00     0.166 HD
ATOM     49  N2  <0> d   1       4.187   2.339  -8.578  0.00  0.00    -0.254 NA
ATOM     50  H29 <0> d   1       5.603   0.859  -8.014  0.00  0.00     0.143 H 
ATOM     51  C18 <0> d   1       2.887   2.526  -8.309  0.00  0.00     0.025 A 
ATOM     52  H28 <0> d   1       2.275   3.340  -8.671  0.00  0.00     0.117 H 
ENDBRANCH  42  45
ENDBRANCH   1  42
BRANCH   1  53
ATOM     53  C20 <0> d   1      -0.492   2.044  -5.188  0.00  0.00     0.241 C 
ATOM     54  O4  <0> d   1      -0.727   1.584  -4.091  0.00  0.00    -0.271 OA
ATOM     55  N4  <0> d   1      -1.504   2.465  -5.973  0.00  0.00    -0.352 N 
ATOM     56  H30 <0> d   1      -1.317   2.832  -6.851  0.00  0.00     0.163 HD
BRANCH  55  57
ATOM     57  C21 <0> d   1      -2.887   2.367  -5.500  0.00  0.00     0.040 C 
ATOM     58  H4  <0> d   1      -3.002   1.468  -4.894  0.00  0.00     0.076 H 
BRANCH  57  59
ATOM     59  C22 <0> d   1      -3.833   2.297  -6.700  0.00  0.00    -0.040 C 
ATOM     60  H31 <0> d   1      -3.770   3.226  -7.267  0.00  0.00     0.036 H 
ATOM     61  H32 <0> d   1      -3.549   1.461  -7.338  0.00  0.00     0.036 H 
BRANCH  59  62
ATOM     62  C23 <0> d   1      -5.268   2.098  -6.207  0.00  0.00    -0.052 C 
ATOM     63  C28 <0> d   1      -6.231   2.178  -7.394  0.00  0.00    -0.062 C 
ATOM     64  C27 <0> d   1      -7.665   1.979  -6.902  0.00  0.00    -0.065 C 
ATOM     65  H42 <0> d   1      -6.142   3.155  -7.869  0.00  0.00     0.033 H 
ATOM     66  H43 <0> d   1      -5.983   1.399  -8.116  0.00  0.00     0.033 H 
ATOM     67  C26 <0> d   1      -7.790   0.607  -6.235  0.00  0.00    -0.065 C 
ATOM     68  H40 <0> d   1      -8.351   2.035  -7.747  0.00  0.00     0.033 H 
ATOM     69  H41 <0> d   1      -7.913   2.757  -6.180  0.00  0.00     0.033 H 
ATOM     70  C25 <0> d   1      -6.828   0.528  -5.048  0.00  0.00    -0.065 C 
ATOM     71  H38 <0> d   1      -7.542  -0.171  -6.957  0.00  0.00     0.033 H 
ATOM     72  H39 <0> d   1      -8.812   0.465  -5.885  0.00  0.00     0.033 H 
ATOM     73  C24 <0> d   1      -5.393   0.727  -5.541  0.00  0.00    -0.062 C 
ATOM     74  H36 <0> d   1      -6.917  -0.450  -4.574  0.00  0.00     0.033 H 
ATOM     75  H37 <0> d   1      -7.076   1.306  -4.327  0.00  0.00     0.033 H 
ATOM     76  H34 <0> d   1      -5.145  -0.052  -6.262  0.00  0.00     0.033 H 
ATOM     77  H35 <0> d   1      -4.708   0.670  -4.695  0.00  0.00     0.033 H 
ATOM     78  H33 <0> d   1      -5.516   2.877  -5.486  0.00  0.00     0.040 H 
ENDBRANCH  59  62
ENDBRANCH  57  59
BRANCH  57  79
ATOM     79  C29 <0> d   1      -3.225   3.597  -4.654  0.00  0.00     0.080 C 
ATOM     80  H5  <0> d   1      -4.266   3.544  -4.336  0.00  0.00     0.090 H 
BRANCH  79  81
ATOM     81  C30 <0> d   1      -2.317   3.636  -3.424  0.00  0.00     0.066 C 
ATOM     82  H6  <0> d   1      -1.274   3.653  -3.743  0.00  0.00     0.087 H 
BRANCH  81  83
ATOM     83  C31 <0> d   1      -2.621   4.892  -2.605  0.00  0.00    -0.027 A 
ATOM     84  C33 <0> d   1      -1.811   5.114  -1.326  0.00  0.00    -0.059 A 
ATOM     85  C32 <0> d   1      -1.548   5.982  -2.558  0.00  0.00    -0.059 A 
ATOM     86  H47 <0> d   1      -2.321   5.580  -0.482  0.00  0.00     0.033 H 
ATOM     87  H48 <0> d   1      -1.062   4.366  -1.068  0.00  0.00     0.033 H 
ATOM     88  H45 <0> d   1      -0.626   5.804  -3.112  0.00  0.00     0.033 H 
ATOM     89  H46 <0> d   1      -1.885   7.018  -2.526  0.00  0.00     0.033 H 
ATOM     90  H44 <0> d   1      -3.663   5.210  -2.602  0.00  0.00     0.044 H 
ENDBRANCH  81  83
BRANCH  81  91
ATOM     91  O5  <0> d   1      -2.550   2.476  -2.623  0.00  0.00    -0.393 OA
ATOM     92  H49 <0> d   1      -3.460   2.395  -2.304  0.00  0.00     0.210 HD
ENDBRANCH  81  91
ENDBRANCH  79  81
BRANCH  79  93
ATOM     93  O6  <0> d   1      -3.025   4.779  -5.432  0.00  0.00    -0.391 OA
ATOM     94  H50 <0> d   1      -3.570   4.822  -6.230  0.00  0.00     0.210 HD
ENDBRANCH  79  93
ENDBRANCH  57  79
ENDBRANCH  55  57
ENDBRANCH   1  53
TORSDOF 21
