@<TRIPOS>MOLECULE
ZINC01493878
   48    50     0     0     0
SMALL
USER_CHARGES

@<TRIPOS>ATOM
      1 C1         -1.0955   -5.0083   -6.9234 C.3       1 <0>         0.0847
      2 N1         -1.5520   -4.3038   -5.7228 N.am      1 <0>        -0.7137
      3 C2         -1.8827   -5.0004   -4.6175 C.2       1 <0>         0.5696
      4 O1         -1.8023   -6.2129   -4.6168 O.2       1 <0>        -0.5284
      5 C3         -2.3445   -4.2878   -3.4031 C.ar      1 <0>         0.1129
      6 C4         -2.6788   -5.0128   -2.2640 C.ar      1 <0>        -0.1883
      7 C5         -3.1110   -4.3279   -1.1310 C.ar      1 <0>         0.1595
      8 C6         -3.1903   -2.9389   -1.1877 C.ar      1 <0>        -0.1766
      9 C7         -2.8404   -2.2885   -2.3571 C.ar      1 <0>         0.1349
     10 N2         -2.4302   -2.9626   -3.4105 N.ar      1 <0>        -0.4815
     11 O2         -3.4471   -4.9979    0.0005 O.3       1 <0>        -0.2437
     12 C8         -3.4462   -6.3570   -0.0383 C.ar      1 <0>         0.0568
     13 C9         -2.2447   -7.0505   -0.0178 C.ar      1 <0>        -0.1074
     14 C10        -2.2431   -8.4307   -0.0577 C.ar      1 <0>        -0.1009
     15 C11        -3.4442   -9.1246   -0.1179 C.ar      1 <0>         0.1671
     16 C12        -4.6464   -8.4301   -0.1379 C.ar      1 <0>        -0.1272
     17 C13        -4.6469   -7.0500   -0.0928 C.ar      1 <0>        -0.0940
     18 N3         -3.4432  -10.5252   -0.1588 N.am      1 <0>        -0.6776
     19 C14        -2.5108  -11.2187    0.5239 C.2       1 <0>         0.7077
     20 O3         -1.6217  -10.6297    1.1080 O.2       1 <0>        -0.5493
     21 N4         -2.5639  -12.5649    0.5593 N.am      1 <0>        -0.6795
     22 C15        -1.6655  -13.2800    1.3600 C.ar      1 <0>         0.1700
     23 C16        -1.2529  -12.7583    2.5792 C.ar      1 <0>        -0.0742
     24 C17        -0.3670  -13.4659    3.3674 C.ar      1 <0>        -0.0871
     25 C18         0.1097  -14.6941    2.9434 C.ar      1 <0>        -0.0077
     26 C19        -0.2993  -15.2159    1.7290 C.ar      1 <0>        -0.1564
     27 C20        -1.1898  -14.5147    0.9394 C.ar      1 <0>        -0.0879
     28 C21         0.2222  -16.5533    1.2702 C.3       1 <0>         0.5112
     29 F1         -0.3299  -16.8663    0.0234 F         1 <0>        -0.1743
     30 F2          1.6160  -16.4983    1.1626 F         1 <0>        -0.1671
     31 F3         -0.1354  -17.5367    2.1987 F         1 <0>        -0.1677
     32 Cl1         1.2234  -15.5812    3.9366 Cl        1 <0>        -0.0394
     33 H1         -0.8760   -4.2843   -7.7081 H         1 <0>         0.0803
     34 H2         -0.1948   -5.5764   -6.6909 H         1 <0>         0.0631
     35 H3         -1.8761   -5.6883   -7.2645 H         1 <0>         0.0629
     36 H4         -1.6162   -3.3359   -5.7233 H         1 <0>         0.4141
     37 H5         -2.6047   -6.0902   -2.2584 H         1 <0>         0.1546
     38 H6         -3.5217   -2.3755   -0.3280 H         1 <0>         0.1523
     39 H7         -2.9005   -1.2112   -2.4052 H         1 <0>         0.1747
     40 H8         -1.3104   -6.5106    0.0290 H         1 <0>         0.1364
     41 H9         -1.3078   -8.9704   -0.0424 H         1 <0>         0.1514
     42 H10        -5.5809   -8.9693   -0.1851 H         1 <0>         0.1386
     43 H11        -5.5820   -6.5098   -0.1039 H         1 <0>         0.1400
     44 H12        -4.1137  -10.9957   -0.6785 H         1 <0>         0.4131
     45 H13        -3.2246  -13.0383    0.0299 H         1 <0>         0.4146
     46 H14        -1.6244  -11.7997    2.9103 H         1 <0>         0.1546
     47 H15        -0.0456  -13.0604    4.3154 H         1 <0>         0.1524
     48 H16        -1.5123  -14.9245   -0.0064 H         1 <0>         0.1525
@<TRIPOS>BOND
     1    1    2 1
     2    1   33 1
     3    1   34 1
     4    1   35 1
     5    2    3 am
     6    2   36 1
     7    3    4 2
     8    3    5 1
     9    5   10 ar
    10    5    6 ar
    11    6    7 ar
    12    6   37 1
    13    7    8 ar
    14    7   11 1
    15    8    9 ar
    16    8   38 1
    17    9   10 ar
    18    9   39 1
    19   11   12 1
    20   12   17 ar
    21   12   13 ar
    22   13   14 ar
    23   13   40 1
    24   14   15 ar
    25   14   41 1
    26   15   16 ar
    27   15   18 1
    28   16   17 ar
    29   16   42 1
    30   17   43 1
    31   18   19 am
    32   18   44 1
    33   19   20 2
    34   19   21 am
    35   21   22 1
    36   21   45 1
    37   22   27 ar
    38   22   23 ar
    39   23   24 ar
    40   23   46 1
    41   24   25 ar
    42   24   47 1
    43   25   26 ar
    44   25   32 1
    45   26   27 ar
    46   26   28 1
    47   27   48 1
    48   28   29 1
    49   28   30 1
    50   28   31 1
@<TRIPOS>MOLECULE
ZINC14879963
   94    97     0     0     0
SMALL
USER_CHARGES

@<TRIPOS>ATOM
      1 C1          3.1628    3.3651    0.6525 C.3       1 <0>        -0.1456
      2 C2          2.1865    3.7969   -0.4436 C.3       1 <0>        -0.5390
      3 C3          0.9469    2.9008   -0.4043 C.3       1 <0>        -0.1419
      4 C4          1.7718    5.2515   -0.2132 C.3       1 <0>        -0.1389
      5 S1          2.9903    3.6465   -2.0628 S.o2      1 <0>         2.4133
      6 O1          2.0294    3.9325   -3.0699 O.2       1 <0>        -0.9119
      7 O2          4.2022    4.3877   -2.0336 O.2       1 <0>        -0.9274
      8 C5          3.3992    1.8811   -2.1448 C.3       1 <0>        -0.6247
      9 C6          4.0283    1.5658   -3.5034 C.3       1 <0>        -0.0799
     10 H1          4.1739    0.4895   -3.5954 H         1 <0>         0.1172
     11 C7          5.3795    2.2747   -3.6166 C.3       1 <0>        -0.0932
     12 C8          6.3314    1.7076   -2.5952 C.ar      1 <0>        -0.0793
     13 C9          6.4006    2.2632   -1.3314 C.ar      1 <0>        -0.1263
     14 C10         7.2738    1.7430   -0.3945 C.ar      1 <0>        -0.1182
     15 C11         8.0775    0.6669   -0.7213 C.ar      1 <0>        -0.1219
     16 C12         8.0077    0.1107   -1.9849 C.ar      1 <0>        -0.1175
     17 C13         7.1314    0.6282   -2.9204 C.ar      1 <0>        -0.1157
     18 C14         3.1159    2.0452   -4.6028 C.2       1 <0>         0.4981
     19 O3          3.5334    2.8086   -5.4477 O.2       1 <0>        -0.4887
     20 N1          1.8359    1.6255   -4.6472 N.am      1 <0>        -0.7005
     21 C15         0.9302    2.1442   -5.6752 C.3       1 <0>         0.1390
     22 H2          1.1716    3.1873   -5.8793 H         1 <0>         0.1236
     23 C16         1.0898    1.3236   -6.9567 C.3       1 <0>        -0.0512
     24 C17         2.4772    1.5221   -7.5107 C.2       1 <0>        -0.0123
     25 C18         2.8866    2.5261   -8.3094 C.2       1 <0>        -0.0017
     26 N2          4.1873    2.3387   -8.5779 N.2       1 <0>        -0.4850
     27 C19         4.5995    1.2567   -7.9759 C.2       1 <0>         0.1889
     28 N3          3.5648    0.7198   -7.2940 N.pl3     1 <0>        -0.5639
     29 H3          3.5876   -0.0853   -6.7534 H         1 <0>         0.4100
     30 C20        -0.4925    2.0437   -5.1884 C.2       1 <0>         0.5080
     31 O4         -0.7268    1.5841   -4.0908 O.2       1 <0>        -0.5001
     32 N4         -1.5044    2.4647   -5.9727 N.am      1 <0>        -0.7155
     33 C21        -2.8874    2.3670   -5.4995 C.3       1 <0>         0.1167
     34 H4         -3.0017    1.4678   -4.8941 H         1 <0>         0.1085
     35 C22        -3.8335    2.2973   -6.6998 C.3       1 <0>        -0.1299
     36 C23        -5.2684    2.0982   -6.2074 C.3       1 <0>        -0.0855
     37 C24        -5.3932    0.7267   -5.5409 C.3       1 <0>        -0.1173
     38 C25        -6.8280    0.5276   -5.0485 C.3       1 <0>        -0.1200
     39 C26        -7.7902    0.6073   -6.2354 C.3       1 <0>        -0.1215
     40 C27        -7.6654    1.9788   -6.9019 C.3       1 <0>        -0.1204
     41 C28        -6.2306    2.1779   -7.3943 C.3       1 <0>        -0.1138
     42 C29        -3.2254    3.5969   -4.6545 C.3       1 <0>         0.0646
     43 H5         -4.2664    3.5440   -4.3358 H         1 <0>         0.0632
     44 C30        -2.3167    3.6358   -3.4242 C.3       1 <0>         0.1487
     45 H6         -1.2744    3.6534   -3.7426 H         1 <0>         0.1128
     46 C31        -2.6209    4.8916   -2.6049 C.3       1 <0>        -0.1833
     47 C32        -1.5485    5.9818   -2.5585 C.3       1 <0>        -0.1643
     48 C33        -1.8111    5.1142   -1.3260 C.3       1 <0>        -0.1793
     49 O5         -2.5503    2.4760   -2.6227 O.3       1 <0>        -0.5226
     50 O6         -3.0249    4.7789   -5.4322 O.3       1 <0>        -0.5473
     51 H7          3.4582    2.3288    0.4883 H         1 <0>         0.0674
     52 H8          4.0459    4.0035    0.6245 H         1 <0>         0.0772
     53 H9          2.6798    3.4555    1.6254 H         1 <0>         0.0843
     54 H10         0.4640    2.9912    0.5686 H         1 <0>         0.0813
     55 H11         0.2514    3.2084   -1.1852 H         1 <0>         0.0858
     56 H12         1.2423    1.8646   -0.5685 H         1 <0>         0.0662
     57 H13         2.6549    5.8898   -0.2412 H         1 <0>         0.0721
     58 H14         1.0763    5.5590   -0.9941 H         1 <0>         0.0753
     59 H15         1.2888    5.3418    0.7598 H         1 <0>         0.0847
     60 H16         4.1050    1.6344   -1.3516 H         1 <0>         0.1463
     61 H17         2.4911    1.2915   -2.0193 H         1 <0>         0.1388
     62 H18         5.7866    2.1232   -4.6163 H         1 <0>         0.0954
     63 H19         5.2463    3.3414   -3.4363 H         1 <0>         0.1031
     64 H20         5.7726    3.1040   -1.0760 H         1 <0>         0.1321
     65 H21         7.3283    2.1776    0.5927 H         1 <0>         0.1236
     66 H22         8.7603    0.2609    0.0104 H         1 <0>         0.1221
     67 H23         8.6359   -0.7299   -2.2404 H         1 <0>         0.1224
     68 H24         7.0742    0.1913   -3.9064 H         1 <0>         0.1211
     69 H25         1.5144    0.9800   -3.9985 H         1 <0>         0.4042
     70 H26         0.9352    0.2679   -6.7338 H         1 <0>         0.0768
     71 H27         0.3547    1.6512   -7.6918 H         1 <0>         0.0978
     72 H28         2.2749    3.3396   -8.6705 H         1 <0>         0.1605
     73 H29         5.6028    0.8587   -8.0135 H         1 <0>         0.1995
     74 H30        -1.3171    2.8323   -6.8506 H         1 <0>         0.4014
     75 H31        -3.7697    3.2258   -7.2672 H         1 <0>         0.0701
     76 H32        -3.5492    1.4610   -7.3385 H         1 <0>         0.0774
     77 H33        -5.5162    2.8767   -5.4859 H         1 <0>         0.0730
     78 H34        -5.1453   -0.0518   -6.2624 H         1 <0>         0.0629
     79 H35        -4.7077    0.6700   -4.6953 H         1 <0>         0.0655
     80 H36        -6.9169   -0.4495   -4.5736 H         1 <0>         0.0619
     81 H37        -7.0758    1.3061   -4.3269 H         1 <0>         0.0607
     82 H38        -7.5424   -0.1713   -6.9569 H         1 <0>         0.0611
     83 H39        -8.8124    0.4654   -5.8846 H         1 <0>         0.0607
     84 H40        -8.3509    2.0355   -7.7475 H         1 <0>         0.0621
     85 H41        -7.9133    2.7573   -6.1804 H         1 <0>         0.0610
     86 H42        -6.1417    3.1549   -7.8692 H         1 <0>         0.0625
     87 H43        -5.9828    1.3993   -8.1158 H         1 <0>         0.0633
     88 H44        -3.6633    5.2102   -2.6024 H         1 <0>         0.0976
     89 H45        -0.6262    5.8044   -3.1117 H         1 <0>         0.0978
     90 H46        -1.8852    7.0180   -2.5256 H         1 <0>         0.0913
     91 H47        -2.3206    5.5795   -0.4822 H         1 <0>         0.0902
     92 H48        -1.0616    4.3659   -1.0683 H         1 <0>         0.1013
     93 H49        -3.4596    2.3951   -2.3035 H         1 <0>         0.3602
     94 H50        -3.5700    4.8221   -6.2298 H         1 <0>         0.3731
@<TRIPOS>BOND
     1    1    2 1
     2    1   51 1
     3    1   52 1
     4    1   53 1
     5    2    3 1
     6    2    4 1
     7    2    5 1
     8    3   54 1
     9    3   55 1
    10    3   56 1
    11    4   57 1
    12    4   58 1
    13    4   59 1
    14    5    6 2
    15    5    7 2
    16    5    8 1
    17    8    9 1
    18    8   60 1
    19    8   61 1
    20    9   10 1
    21    9   11 1
    22    9   18 1
    23   11   12 1
    24   11   62 1
    25   11   63 1
    26   12   17 ar
    27   12   13 ar
    28   13   14 ar
    29   13   64 1
    30   14   15 ar
    31   14   65 1
    32   15   16 ar
    33   15   66 1
    34   16   17 ar
    35   16   67 1
    36   17   68 1
    37   18   19 2
    38   18   20 am
    39   20   21 1
    40   20   69 1
    41   21   22 1
    42   21   23 1
    43   21   30 1
    44   23   24 1
    45   23   70 1
    46   23   71 1
    47   24   28 1
    48   24   25 2
    49   25   26 1
    50   25   72 1
    51   26   27 2
    52   27   28 1
    53   27   73 1
    54   28   29 1
    55   30   31 2
    56   30   32 am
    57   32   33 1
    58   32   74 1
    59   33   34 1
    60   33   35 1
    61   33   42 1
    62   35   36 1
    63   35   75 1
    64   35   76 1
    65   36   41 1
    66   36   37 1
    67   36   77 1
    68   37   38 1
    69   37   78 1
    70   37   79 1
    71   38   39 1
    72   38   80 1
    73   38   81 1
    74   39   40 1
    75   39   82 1
    76   39   83 1
    77   40   41 1
    78   40   84 1
    79   40   85 1
    80   41   86 1
    81   41   87 1
    82   42   43 1
    83   42   44 1
    84   42   50 1
    85   44   45 1
    86   44   46 1
    87   44   49 1
    88   46   48 1
    89   46   47 1
    90   46   88 1
    91   47   48 1
    92   47   89 1
    93   47   90 1
    94   48   91 1
    95   48   92 1
    96   49   93 1
    97   50   94 1
