REMARK  17 active torsions:
REMARK  status: ('A' for Active; 'I' for Inactive)
REMARK    1  A    between atoms: C1_1  and  O2_3 
REMARK       I    between atoms: C1_1  and  N_18 
REMARK    2  A    between atoms: O2_3  and  C2_4 
REMARK    3  A    between atoms: C2_4  and  C3_7 
REMARK    4  A    between atoms: N_18  and  CA_20 
REMARK    5  A    between atoms: CA_20  and  P_22 
REMARK    6  A    between atoms: CA_20  and  CB_25 
REMARK    7  A    between atoms: P_22  and  N1_39 
REMARK    8  A    between atoms: CB_25  and  CG_28 
REMARK    9  A    between atoms: N1_39  and  CA1_41 
REMARK   10  A    between atoms: CA1_41  and  C_43 
REMARK   11  A    between atoms: CA1_41  and  CB1_45 
REMARK       I    between atoms: C_43  and  N2_58 
REMARK   12  A    between atoms: CB1_45  and  CG1_48 
REMARK   13  A    between atoms: CG1_48  and  CD11_50 
REMARK   14  A    between atoms: CG1_48  and  CD21_54 
REMARK   15  A    between atoms: N2_58  and  CA2_60 
REMARK   16  A    between atoms: CA2_60  and  C9_62 
REMARK   17  A    between atoms: CA2_60  and  CB2_64 
ROOT
HETATM    1  CA  0PK E 317      50.665  18.643  -6.839  1.00 15.62     0.112 C 
ATOM      2  HA  0PK E 317      49.739  19.015  -6.341  1.00  0.00     0.092 H 
ENDROOT
BRANCH   1   3
HETATM    3  N   0PK E 317      50.781  19.136  -8.240  1.00 22.52    -0.321 N 
HETATM    4  C1  0PK E 317      50.429  20.387  -8.574  1.00 34.31     0.361 C 
HETATM    5  O1  0PK E 317      49.898  21.252  -7.797  1.00 14.84    -0.238 OA
ATOM      6  HN  0PK E 317      51.136  18.508  -8.962  1.00  0.00     0.165 HD
BRANCH   4   7
HETATM    7  O2  0PK E 317      50.795  20.582  -9.889  1.00 36.82    -0.299 OA
BRANCH   7   8
HETATM    8  C2  0PK E 317      51.006  21.906 -10.406  1.00 28.86     0.054 C 
ATOM      9  H22 0PK E 317      50.537  22.727  -9.815  1.00  0.00     0.082 H 
ATOM     10  H21 0PK E 317      52.047  22.293 -10.310  1.00  0.00     0.082 H 
BRANCH   8  11
HETATM   11  C3  0PK E 317      50.509  21.767 -11.801  1.00 35.76    -0.034 A 
HETATM   12  C4  0PK E 317      50.418  20.618 -12.594  1.00 40.10    -0.075 A 
HETATM   13  C5  0PK E 317      49.873  20.607 -13.905  1.00 35.91    -0.082 A 
ATOM     14  H4  0PK E 317      50.791  19.667 -12.177  1.00  0.00     0.084 H 
HETATM   15  C6  0PK E 317      49.363  21.692 -14.478  1.00 34.71    -0.083 A 
ATOM     16  H5  0PK E 317      49.873  19.660 -14.470  1.00  0.00     0.083 H 
HETATM   17  C7  0PK E 317      49.501  22.746 -13.667  1.00 36.72    -0.082 A 
ATOM     18  H6  0PK E 317      48.895  21.719 -15.476  1.00  0.00     0.083 H 
HETATM   19  C8  0PK E 317      50.017  22.881 -12.362  1.00 45.51    -0.075 A 
ATOM     20  H7  0PK E 317      49.142  23.693 -14.103  1.00  0.00     0.083 H 
ATOM     21  H8  0PK E 317      50.016  23.849 -11.832  1.00  0.00     0.084 H 
ENDBRANCH   8  11
ENDBRANCH   7   8
ENDBRANCH   4   7
ENDBRANCH   1   3
BRANCH   1  22
HETATM   22  P   0PK E 317      52.032  19.153  -6.064  1.00 21.66     0.229 P 
HETATM   23  O1P 0PK E 317      53.333  18.540  -6.709  1.00 16.78    -0.650 OA
HETATM   24  O2P 0PK E 317      52.108  20.732  -5.940  1.00 20.47    -0.650 OA
BRANCH  22  25
HETATM   25  N1  0PK E 317      51.707  18.503  -4.310  1.00 10.65    -0.334 N 
ATOM     26  H1  0PK E 317      50.769  18.288  -3.971  1.00  0.00     0.164 HD
BRANCH  25  27
HETATM   27  CA1 0PK E 317      52.905  18.332  -3.476  1.00 19.60     0.091 C 
ATOM     28  HA1 0PK E 317      53.622  19.140  -3.751  1.00  0.00     0.087 H 
BRANCH  27  29
HETATM   29  C   0PK E 317      53.636  16.990  -3.643  1.00 21.26     0.241 C 
HETATM   30  O   0PK E 317      54.870  16.919  -3.605  1.00 13.66    -0.271 OA
HETATM   31  N2  0PK E 317      52.865  15.926  -3.751  1.00 15.37    -0.345 N 
ATOM     32  H2  0PK E 317      51.856  16.077  -3.758  1.00  0.00     0.163 HD
BRANCH  31  33
HETATM   33  CA2 0PK E 317      53.343  14.533  -3.863  1.00 19.49     0.093 C 
ATOM     34  HA2 0PK E 317      54.449  14.539  -4.005  1.00  0.00     0.089 H 
BRANCH  33  35
HETATM   35  C9  0PK E 317      52.683  13.822  -5.071  1.00 27.58     0.196 C 
HETATM   36  O3  0PK E 317      51.674  14.310  -5.621  1.00 23.90    -0.646 OA
HETATM   37  OXT 0PK E 317      53.134  12.778  -5.668  1.00 37.89    -0.646 OA
ENDBRANCH  33  35
BRANCH  33  38
HETATM   38  CB2 0PK E 317      53.015  13.809  -2.570  1.00 14.23    -0.048 C 
ATOM     39 3HB2 0PK E 317      53.421  14.331  -1.672  1.00  0.00     0.030 H 
ATOM     40 2HB2 0PK E 317      51.933  13.871  -2.306  1.00  0.00     0.030 H 
ATOM     41 1HB2 0PK E 317      53.376  12.757  -2.655  1.00  0.00     0.030 H 
ENDBRANCH  33  38
ENDBRANCH  31  33
ENDBRANCH  27  29
BRANCH  27  42
HETATM   42  CB1 0PK E 317      52.606  18.471  -1.978  1.00 11.41    -0.035 C 
ATOM     43 2HB1 0PK E 317      52.049  19.415  -1.772  1.00  0.00     0.037 H 
ATOM     44 1HB1 0PK E 317      51.837  17.729  -1.658  1.00  0.00     0.037 H 
BRANCH  42  45
HETATM   45  CG1 0PK E 317      53.837  18.375  -1.107  1.00 18.68    -0.059 C 
ATOM     46  HG1 0PK E 317      54.435  17.473  -1.374  1.00  0.00     0.038 H 
BRANCH  45  47
HETATM   47  CD1 0PK E 317      54.692  19.648  -1.245  1.00 11.01    -0.073 C 
ATOM     48 1HD1 0PK E 317      54.951  19.861  -2.308  1.00  0.00     0.028 H 
ATOM     49 1HD1 0PK E 317      54.102  20.570  -1.031  1.00  0.00     0.028 H 
ATOM     50 1HD1 0PK E 317      55.600  19.577  -0.602  1.00  0.00     0.028 H 
ENDBRANCH  45  47
BRANCH  45  51
HETATM   51  CD2 0PK E 317      53.186  18.197   0.248  1.00 14.51    -0.073 C 
ATOM     52 1HD2 0PK E 317      52.445  18.978   0.538  1.00  0.00     0.028 H 
ATOM     53 1HD2 0PK E 317      52.463  17.352   0.333  1.00  0.00     0.028 H 
ATOM     54 1HD2 0PK E 317      54.094  18.126   0.891  1.00  0.00     0.028 H 
ENDBRANCH  45  51
ENDBRANCH  42  45
ENDBRANCH  27  42
ENDBRANCH  25  27
ENDBRANCH  22  25
ENDBRANCH   1  22
BRANCH   1  55
HETATM   55  CB  0PK E 317      50.669  17.157  -6.973  1.00 13.68    -0.011 C 
ATOM     56  HB2 0PK E 317      51.575  16.759  -7.486  1.00  0.00     0.044 H 
ATOM     57  HB1 0PK E 317      50.817  16.624  -6.005  1.00  0.00     0.044 H 
BRANCH  55  58
HETATM   58  CG  0PK E 317      49.373  16.797  -7.670  1.00 21.81    -0.056 A 
HETATM   59  CD1 0PK E 317      48.217  16.788  -6.879  1.00 18.63    -0.077 A 
HETATM   60  CE1 0PK E 317      46.972  16.487  -7.446  1.00 29.09    -0.082 A 
ATOM     61  HD1 0PK E 317      48.288  17.019  -5.803  1.00  0.00     0.084 H 
HETATM   62  CZ  0PK E 317      46.915  16.208  -8.806  1.00 30.89    -0.083 A 
ATOM     63  HE1 0PK E 317      46.059  16.472  -6.828  1.00  0.00     0.083 H 
HETATM   64  CE2 0PK E 317      48.093  16.246  -9.607  1.00 28.54    -0.082 A 
ATOM     65  HZ  0PK E 317      45.947  15.954  -9.271  1.00  0.00     0.083 H 
HETATM   66  CD2 0PK E 317      49.328  16.560  -9.021  1.00 24.64    -0.077 A 
ATOM     67  HE2 0PK E 317      48.034  16.029 -10.687  1.00  0.00     0.083 H 
ATOM     68  HD2 0PK E 317      50.244  16.615  -9.633  1.00  0.00     0.084 H 
ENDBRANCH  55  58
ENDBRANCH   1  55
TORSDOF 17
