REMARK       NORMALIZED FREE ENERGY PREDICTED BY IDOCK: -10.575 KCAL/MOL
REMARK            TOTAL FREE ENERGY PREDICTED BY IDOCK: -14.610 KCAL/MOL
REMARK     INTER-LIGAND FREE ENERGY PREDICTED BY IDOCK: -13.666 KCAL/MOL
REMARK     INTRA-LIGAND FREE ENERGY PREDICTED BY IDOCK:  -0.944 KCAL/MOL
REMARK            LIGAND EFFICIENCY PREDICTED BY IDOCK:  -0.488 KCAL/MOL
REMARK               HYDROGEN BONDS PREDICTED BY IDOCK:   2 | A:LYS101:O - XX | A:LYS101:N - XX
ROOT
ATOM      1  XX  LIG d   1      49.879 -31.538  35.329  0.00  0.00    -0.668 A 
ATOM      2  XX  LIG d   1      49.091 -30.465  35.757  0.00  0.00    -0.678 A 
ATOM      3  XX  LIG d   1      49.288 -29.212  35.220  0.00  0.00    -0.769 A 
ATOM      4  XX  LIG d   1      50.268 -29.014  34.252  0.00  0.00    -0.492 A 
ATOM      5  XX  LIG d   1      51.053 -30.080  33.823  0.00  0.00    -0.682 A 
ATOM      6  XX  LIG d   1      50.862 -31.335  34.357  0.00  0.00    -0.802 A 
ATOM      7  XX  LIG d   1      49.526 -33.875  36.335  0.00  0.00     0.141 NA
ATOM      8  XX  LIG d   1      49.682 -32.841  35.889  0.00  0.00    -0.567 C 
ENDROOT
BRANCH   4   9
ATOM      9  XX  LIG d   1      50.462 -27.745  33.710  0.00  0.00    -0.095 N 
ATOM     10  XX  LIG d   1      49.914 -27.445  32.968  0.00  0.00     0.000 HD
BRANCH   9  11
ATOM     11  XX  LIG d   1      51.440 -26.912  34.229  0.00  0.00    -0.227 A 
ATOM     12  XX  LIG d   1      52.469 -26.570  33.468  0.00  0.00    -0.187 NA
ATOM     13  XX  LIG d   1      53.424 -25.777  33.929  0.00  0.00    -0.187 A 
ATOM     14  XX  LIG d   1      53.341 -25.301  35.224  0.00  0.00    -0.520 A 
ATOM     15  XX  LIG d   1      52.245 -25.678  36.003  0.00  0.00    -0.370 A 
ATOM     16  XX  LIG d   1      51.324 -26.478  35.475  0.00  0.00    -0.430 NA
BRANCH  15  17
ATOM     17  XX  LIG d   1      52.120 -25.227  37.308  0.00  0.00    -0.317 N 
ATOM     18  XX  LIG d   1      52.609 -24.442  37.599  0.00  0.00     0.000 HD
BRANCH  17  19
ATOM     19  XX  LIG d   1      51.290 -25.903  38.201  0.00  0.00    -0.379 A 
ATOM     20  XX  LIG d   1      49.992 -25.451  38.420  0.00  0.00    -0.645 A 
ATOM     21  XX  LIG d   1      49.486 -24.234  37.691  0.00  0.00    -0.738 C 
ATOM     22  XX  LIG d   1      49.168 -26.120  39.297  0.00  0.00    -0.597 A 
ATOM     23  XX  LIG d   1      49.637 -27.254  39.969  0.00  0.00    -0.777 A 
ATOM     24  XX  LIG d   1      50.944 -27.704  39.747  0.00  0.00    -0.502 A 
ATOM     25  XX  LIG d   1      51.763 -27.027  38.872  0.00  0.00    -0.590 A 
ATOM     26  XX  LIG d   1      53.170 -27.511  38.632  0.00  0.00    -0.583 C 
BRANCH  23  27
ATOM     27  XX  LIG d   1      48.758 -27.974  40.901  0.00  0.00    -0.679 C 
ATOM     28  XX  LIG d   1      47.425 -27.995  40.692  0.00  0.00    -0.913 C 
ATOM     29  XX  LIG d   1      46.568 -28.697  41.600  0.00  0.00    -0.162 C 
ATOM     30  XX  LIG d   1      45.889 -29.254  42.321  0.00  0.00    -0.254 NA
ENDBRANCH  23  27
ENDBRANCH  17  19
ENDBRANCH  15  17
ENDBRANCH   9  11
ENDBRANCH   4   9
TORSDOF 5

