MODEL        1
REMARK       NORMALIZED FREE ENERGY PREDICTED BY IDOCK:  -7.149 KCAL/MOL
REMARK            TOTAL FREE ENERGY PREDICTED BY IDOCK:  -8.159 KCAL/MOL
REMARK     INTER-LIGAND FREE ENERGY PREDICTED BY IDOCK: -10.911 KCAL/MOL
REMARK     INTRA-LIGAND FREE ENERGY PREDICTED BY IDOCK:   2.751 KCAL/MOL
REMARK            LIGAND EFFICIENCY PREDICTED BY IDOCK:  -0.546 KCAL/MOL
REMARK               HYDROGEN BONDS PREDICTED BY IDOCK:   2 | A:TYR318:OH - O1 | A:TYR318:OH - O2
ROOT
ATOM      1  N1  <0> d          50.714 -26.645  36.851  0.00  0.00    -0.400 N 
ATOM      2  C13 <0> d          51.541 -26.537  35.793  0.00  0.00    -0.445 C 
ATOM      3  O3  <0> d          51.417 -27.287  34.847  0.00  0.00    -0.411 OA
ENDROOT
BRANCH   1   4
ATOM      4  C7  <0> d          50.910 -25.790  38.024  0.00  0.00    -0.372 C 
ATOM      5  C2  <0> d          50.790 -26.632  39.295  0.00  0.00    -0.690 C 
ATOM      6  H1  <0> d          50.936 -25.996  40.168  0.00  0.00     0.000 H 
ATOM      7  C3  <0> d          49.400 -27.270  39.355  0.00  0.00    -0.605 C 
ATOM      8  C4  <0> d          48.336 -26.171  39.369  0.00  0.00    -0.762 C 
ATOM      9  H7  <0> d          49.255 -27.906  38.482  0.00  0.00     0.000 H 
ATOM     10  H8  <0> d          49.315 -27.871  40.260  0.00  0.00     0.000 H 
ATOM     11  C5  <0> d          48.456 -25.329  38.098  0.00  0.00    -0.866 C 
ATOM     12  H9  <0> d          47.345 -26.625  39.413  0.00  0.00     0.000 H 
ATOM     13  H10 <0> d          48.482 -25.535  40.242  0.00  0.00     0.000 H 
ATOM     14  C6  <0> d          49.845 -24.691  38.038  0.00  0.00    -0.713 C 
ATOM     15  H11 <0> d          48.310 -25.965  37.226  0.00  0.00     0.000 H 
ATOM     16  H12 <0> d          47.697 -24.546  38.108  0.00  0.00     0.000 H 
ATOM     17  H13 <0> d          49.931 -24.091  37.133  0.00  0.00     0.000 H 
ATOM     18  H14 <0> d          49.991 -24.055  38.911  0.00  0.00     0.000 H 
ATOM     19  H2  <0> d          51.900 -25.335  37.981  0.00  0.00     0.000 H 
BRANCH   5  20
ATOM     20  C1  <0> d          51.855 -27.731  39.281  0.00  0.00    -0.528 C 
ATOM     21  H4  <0> d          52.793 -27.332  39.667  0.00  0.00     0.000 H 
ATOM     22  H5  <0> d          51.528 -28.562  39.906  0.00  0.00     0.000 H 
ATOM     23  H6  <0> d          52.002 -28.082  38.259  0.00  0.00     0.000 H 
ENDBRANCH   5  20
ENDBRANCH   1   4
BRANCH   1  24
ATOM     24  C8  <0> d          49.618 -27.617  36.828  0.00  0.00    -0.203 C 
ATOM     25  H15 <0> d          49.221 -27.741  37.836  0.00  0.00     0.000 H 
ATOM     26  H16 <0> d          48.829 -27.259  36.168  0.00  0.00     0.000 H 
BRANCH  24  27
ATOM     27  C9  <0> d          50.140 -28.961  36.317  0.00  0.00    -0.575 C 
ATOM     28  H3  <0> d          51.185 -28.857  36.023  0.00  0.00     0.000 H 
BRANCH  27  29
ATOM     29  C10 <0> d          50.023 -30.009  37.425  0.00  0.00    -0.851 C 
ATOM     30  H17 <0> d          48.979 -30.113  37.718  0.00  0.00     0.000 H 
ATOM     31  H18 <0> d          50.395 -30.967  37.061  0.00  0.00     0.000 H 
ATOM     32  H19 <0> d          50.612 -29.694  38.286  0.00  0.00     0.000 H 
ENDBRANCH  27  29
BRANCH  27  33
ATOM     33  C11 <0> d          49.325 -29.396  35.126  0.00  0.00    -0.510 C 
ATOM     34  O1  <0> d          48.473 -28.666  34.678  0.00  0.00    -0.563 OA
BRANCH  33  35
ATOM     35  O2  <0> d          49.546 -30.595  34.563  0.00  0.00    -0.645 OA
BRANCH  35  36
ATOM     36  C12 <0> d          50.724 -30.731  33.768  0.00  0.00    -0.709 C 
ATOM     37  H20 <0> d          50.782 -31.746  33.374  0.00  0.00     0.000 H 
ATOM     38  H21 <0> d          50.689 -30.022  32.941  0.00  0.00     0.000 H 
ATOM     39  H22 <0> d          51.603 -30.529  34.381  0.00  0.00     0.000 H 
ENDBRANCH  35  36
ENDBRANCH  33  35
ENDBRANCH  27  33
ENDBRANCH  24  27
ENDBRANCH   1  24
BRANCH   2  40
ATOM     40  C14 <0> d          52.621 -25.485  35.784  0.00  0.00    -0.357 C 
ATOM     41  H23 <0> d          52.165 -24.497  35.728  0.00  0.00     0.000 H 
ATOM     42  H24 <0> d          53.211 -25.563  36.697  0.00  0.00     0.000 H 
BRANCH  40  43
ATOM     43  O4  <0> d          53.469 -25.683  34.650  0.00  0.00    -0.331 OA
BRANCH  43  44
ATOM     44  C15 <0> d          53.449 -24.604  33.715  0.00  0.00    -0.374 C 
ATOM     45  H25 <0> d          52.435 -24.467  33.338  0.00  0.00     0.000 H 
ATOM     46  H26 <0> d          53.779 -23.689  34.207  0.00  0.00     0.000 H 
ATOM     47  H27 <0> d          54.117 -24.830  32.884  0.00  0.00     0.000 H 
ENDBRANCH  43  44
ENDBRANCH  40  43
ENDBRANCH   2  40
TORSDOF 11
ENDMDL
MODEL        2
REMARK       NORMALIZED FREE ENERGY PREDICTED BY IDOCK:  -6.525 KCAL/MOL
REMARK            TOTAL FREE ENERGY PREDICTED BY IDOCK:  -7.206 KCAL/MOL
REMARK     INTER-LIGAND FREE ENERGY PREDICTED BY IDOCK:  -9.998 KCAL/MOL
REMARK     INTRA-LIGAND FREE ENERGY PREDICTED BY IDOCK:   2.792 KCAL/MOL
REMARK            LIGAND EFFICIENCY PREDICTED BY IDOCK:  -0.500 KCAL/MOL
REMARK               HYDROGEN BONDS PREDICTED BY IDOCK:   0
ROOT
ATOM      1  N1  <0> d          50.665 -28.626  37.805  0.00  0.00    -0.437 N 
ATOM      2  C13 <0> d          49.630 -29.000  38.584  0.00  0.00    -0.473 C 
ATOM      3  O3  <0> d          48.845 -29.836  38.190  0.00  0.00     0.013 OA
ENDROOT
BRANCH   1   4
ATOM      4  C7  <0> d          51.570 -27.564  38.249  0.00  0.00    -0.379 C 
ATOM      5  C2  <0> d          51.329 -26.305  37.415  0.00  0.00    -0.443 C 
ATOM      6  H1  <0> d          52.002 -25.515  37.746  0.00  0.00     0.000 H 
ATOM      7  C3  <0> d          51.591 -26.614  35.939  0.00  0.00    -0.577 C 
ATOM      8  C4  <0> d          53.040 -27.072  35.764  0.00  0.00    -0.484 C 
ATOM      9  H7  <0> d          50.917 -27.404  35.609  0.00  0.00     0.000 H 
ATOM     10  H8  <0> d          51.418 -25.718  35.344  0.00  0.00     0.000 H 
ATOM     11  C5  <0> d          53.281 -28.331  36.598  0.00  0.00    -0.578 C 
ATOM     12  H9  <0> d          53.227 -27.292  34.712  0.00  0.00     0.000 H 
ATOM     13  H10 <0> d          53.713 -26.282  36.095  0.00  0.00     0.000 H 
ATOM     14  C6  <0> d          53.019 -28.022  38.074  0.00  0.00    -0.617 C 
ATOM     15  H11 <0> d          52.608 -29.121  36.268  0.00  0.00     0.000 H 
ATOM     16  H12 <0> d          54.314 -28.658  36.474  0.00  0.00     0.000 H 
ATOM     17  H13 <0> d          53.191 -28.918  38.669  0.00  0.00     0.000 H 
ATOM     18  H14 <0> d          53.694 -27.231  38.405  0.00  0.00     0.000 H 
ATOM     19  H2  <0> d          51.384 -27.344  39.301  0.00  0.00     0.000 H 
BRANCH   5  20
ATOM     20  C1  <0> d          49.880 -25.847  37.590  0.00  0.00    -0.568 C 
ATOM     21  H4  <0> d          49.799 -25.233  38.487  0.00  0.00     0.000 H 
ATOM     22  H5  <0> d          49.575 -25.263  36.722  0.00  0.00     0.000 H 
ATOM     23  H6  <0> d          49.232 -26.719  37.686  0.00  0.00     0.000 H 
ENDBRANCH   5  20
ENDBRANCH   1   4
BRANCH   1  24
ATOM     24  C8  <0> d          50.884 -29.282  36.514  0.00  0.00    -0.448 C 
ATOM     25  H15 <0> d          51.387 -28.592  35.836  0.00  0.00     0.000 H 
ATOM     26  H16 <0> d          51.504 -30.167  36.657  0.00  0.00     0.000 H 
BRANCH  24  27
ATOM     27  C9  <0> d          49.538 -29.694  35.917  0.00  0.00    -0.661 C 
ATOM     28  H3  <0> d          48.792 -29.756  36.709  0.00  0.00     0.000 H 
BRANCH  27  29
ATOM     29  C10 <0> d          49.098 -28.655  34.883  0.00  0.00    -0.594 C 
ATOM     30  H17 <0> d          49.844 -28.594  34.090  0.00  0.00     0.000 H 
ATOM     31  H18 <0> d          48.139 -28.948  34.458  0.00  0.00     0.000 H 
ATOM     32  H19 <0> d          49.000 -27.683  35.365  0.00  0.00     0.000 H 
ENDBRANCH  27  29
BRANCH  27  33
ATOM     33  C11 <0> d          49.674 -31.039  35.250  0.00  0.00    -0.496 C 
ATOM     34  O1  <0> d          50.337 -31.151  34.246  0.00  0.00    -0.533 OA
BRANCH  33  35
ATOM     35  O2  <0> d          49.059 -32.113  35.772  0.00  0.00    -0.548 OA
BRANCH  35  36
ATOM     36  C12 <0> d          49.889 -33.202  36.178  0.00  0.00    -0.584 C 
ATOM     37  H20 <0> d          49.267 -34.001  36.581  0.00  0.00     0.000 H 
ATOM     38  H21 <0> d          50.448 -33.573  35.319  0.00  0.00     0.000 H 
ATOM     39  H22 <0> d          50.586 -32.862  36.945  0.00  0.00     0.000 H 
ENDBRANCH  35  36
ENDBRANCH  33  35
ENDBRANCH  27  33
ENDBRANCH  24  27
ENDBRANCH   1  24
BRANCH   2  40
ATOM     40  C14 <0> d          49.449 -28.379  39.946  0.00  0.00    -0.481 C 
ATOM     41  H23 <0> d          50.209 -28.764  40.625  0.00  0.00     0.000 H 
ATOM     42  H24 <0> d          49.547 -27.296  39.867  0.00  0.00     0.000 H 
BRANCH  40  43
ATOM     43  O4  <0> d          48.151 -28.704  40.448  0.00  0.00    -0.496 OA
BRANCH  43  44
ATOM     44  C15 <0> d          47.592 -27.704  41.302  0.00  0.00    -0.616 C 
ATOM     45  H25 <0> d          48.242 -27.555  42.163  0.00  0.00     0.000 H 
ATOM     46  H26 <0> d          47.498 -26.768  40.752  0.00  0.00     0.000 H 
ATOM     47  H27 <0> d          46.607 -28.026  41.642  0.00  0.00     0.000 H 
ENDBRANCH  43  44
ENDBRANCH  40  43
ENDBRANCH   2  40
TORSDOF 11
ENDMDL
MODEL        3
REMARK       NORMALIZED FREE ENERGY PREDICTED BY IDOCK:  -6.520 KCAL/MOL
REMARK            TOTAL FREE ENERGY PREDICTED BY IDOCK:  -7.198 KCAL/MOL
REMARK     INTER-LIGAND FREE ENERGY PREDICTED BY IDOCK: -10.597 KCAL/MOL
REMARK     INTRA-LIGAND FREE ENERGY PREDICTED BY IDOCK:   3.399 KCAL/MOL
REMARK            LIGAND EFFICIENCY PREDICTED BY IDOCK:  -0.530 KCAL/MOL
REMARK               HYDROGEN BONDS PREDICTED BY IDOCK:   1 | A:TYR318:OH - O1
ROOT
ATOM      1  N1  <0> d          50.847 -26.496  36.837  0.00  0.00    -0.385 N 
ATOM      2  C13 <0> d          51.699 -26.450  35.793  0.00  0.00    -0.429 C 
ATOM      3  O3  <0> d          51.619 -27.277  34.909  0.00  0.00    -0.390 OA
ENDROOT
BRANCH   1   4
ATOM      4  C7  <0> d          50.990 -25.543  37.941  0.00  0.00    -0.375 C 
ATOM      5  C2  <0> d          50.869 -26.284  39.273  0.00  0.00    -0.563 C 
ATOM      6  H1  <0> d          50.976 -25.576  40.094  0.00  0.00     0.000 H 
ATOM      7  C3  <0> d          49.499 -26.962  39.358  0.00  0.00    -0.623 C 
ATOM      8  C4  <0> d          48.400 -25.902  39.262  0.00  0.00    -0.853 C 
ATOM      9  H7  <0> d          49.394 -27.670  38.536  0.00  0.00     0.000 H 
ATOM     10  H8  <0> d          49.413 -27.491  40.307  0.00  0.00     0.000 H 
ATOM     11  C5  <0> d          48.521 -25.161  37.930  0.00  0.00    -0.851 C 
ATOM     12  H9  <0> d          47.424 -26.384  39.323  0.00  0.00     0.000 H 
ATOM     13  H10 <0> d          48.507 -25.193  40.084  0.00  0.00     0.000 H 
ATOM     14  C6  <0> d          49.890 -24.483  37.845  0.00  0.00    -0.702 C 
ATOM     15  H11 <0> d          48.415 -25.869  37.109  0.00  0.00     0.000 H 
ATOM     16  H12 <0> d          47.738 -24.405  37.861  0.00  0.00     0.000 H 
ATOM     17  H13 <0> d          49.977 -23.955  36.896  0.00  0.00     0.000 H 
ATOM     18  H14 <0> d          49.997 -23.774  38.667  0.00  0.00     0.000 H 
ATOM     19  H2  <0> d          51.965 -25.060  37.880  0.00  0.00     0.000 H 
BRANCH   5  20
ATOM     20  C1  <0> d          51.968 -27.344  39.369  0.00  0.00    -0.535 C 
ATOM     21  H4  <0> d          52.884 -26.885  39.740  0.00  0.00     0.000 H 
ATOM     22  H5  <0> d          51.655 -28.133  40.052  0.00  0.00     0.000 H 
ATOM     23  H6  <0> d          52.149 -27.771  38.382  0.00  0.00     0.000 H 
ENDBRANCH   5  20
ENDBRANCH   1   4
BRANCH   1  24
ATOM     24  C8  <0> d          49.779 -27.497  36.867  0.00  0.00    -0.319 C 
ATOM     25  H15 <0> d          49.269 -27.456  37.830  0.00  0.00     0.000 H 
ATOM     26  H16 <0> d          49.065 -27.291  36.070  0.00  0.00     0.000 H 
BRANCH  24  27
ATOM     27  C9  <0> d          50.380 -28.889  36.668  0.00  0.00    -0.557 C 
ATOM     28  H3  <0> d          51.430 -28.796  36.391  0.00  0.00     0.000 H 
BRANCH  27  29
ATOM     29  C10 <0> d          50.264 -29.687  37.969  0.00  0.00    -0.758 C 
ATOM     30  H17 <0> d          49.213 -29.781  38.244  0.00  0.00     0.000 H 
ATOM     31  H18 <0> d          50.692 -30.679  37.826  0.00  0.00     0.000 H 
ATOM     32  H19 <0> d          50.802 -29.168  38.761  0.00  0.00     0.000 H 
ENDBRANCH  27  29
BRANCH  27  33
ATOM     33  C11 <0> d          49.634 -29.606  35.572  0.00  0.00    -0.461 C 
ATOM     34  O1  <0> d          48.918 -28.985  34.822  0.00  0.00    -0.741 OA
BRANCH  33  35
ATOM     35  O2  <0> d          49.764 -30.934  35.428  0.00  0.00    -0.438 OA
BRANCH  35  36
ATOM     36  C12 <0> d          48.788 -31.755  36.071  0.00  0.00    -0.573 C 
ATOM     37  H20 <0> d          49.009 -32.804  35.875  0.00  0.00     0.000 H 
ATOM     38  H21 <0> d          48.811 -31.574  37.145  0.00  0.00     0.000 H 
ATOM     39  H22 <0> d          47.798 -31.514  35.684  0.00  0.00     0.000 H 
ENDBRANCH  35  36
ENDBRANCH  33  35
ENDBRANCH  27  33
ENDBRANCH  24  27
ENDBRANCH   1  24
BRANCH   2  40
ATOM     40  C14 <0> d          52.750 -25.372  35.725  0.00  0.00    -0.360 C 
ATOM     41  H23 <0> d          52.267 -24.398  35.647  0.00  0.00     0.000 H 
ATOM     42  H24 <0> d          53.362 -25.404  36.626  0.00  0.00     0.000 H 
BRANCH  40  43
ATOM     43  O4  <0> d          53.577 -25.586  34.579  0.00  0.00    -0.321 OA
BRANCH  43  44
ATOM     44  C15 <0> d          53.444 -24.583  33.571  0.00  0.00    -0.362 C 
ATOM     45  H25 <0> d          52.412 -24.552  33.221  0.00  0.00     0.000 H 
ATOM     46  H26 <0> d          53.715 -23.612  33.986  0.00  0.00     0.000 H 
ATOM     47  H27 <0> d          54.104 -24.817  32.735  0.00  0.00     0.000 H 
ENDBRANCH  43  44
ENDBRANCH  40  43
ENDBRANCH   2  40
TORSDOF 11
ENDMDL
MODEL        4
REMARK       NORMALIZED FREE ENERGY PREDICTED BY IDOCK:  -6.408 KCAL/MOL
REMARK            TOTAL FREE ENERGY PREDICTED BY IDOCK:  -7.027 KCAL/MOL
REMARK     INTER-LIGAND FREE ENERGY PREDICTED BY IDOCK:  -9.580 KCAL/MOL
REMARK     INTRA-LIGAND FREE ENERGY PREDICTED BY IDOCK:   2.553 KCAL/MOL
REMARK            LIGAND EFFICIENCY PREDICTED BY IDOCK:  -0.479 KCAL/MOL
REMARK               HYDROGEN BONDS PREDICTED BY IDOCK:   1 | A:LYS101:N - O4
ROOT
ATOM      1  N1  <0> d          51.002 -27.515  36.070  0.00  0.00    -0.387 N 
ATOM      2  C13 <0> d          51.679 -26.439  35.623  0.00  0.00    -0.431 C 
ATOM      3  O3  <0> d          51.346 -25.325  35.971  0.00  0.00    -0.194 OA
ENDROOT
BRANCH   1   4
ATOM      4  C7  <0> d          51.357 -28.854  35.592  0.00  0.00    -0.430 C 
ATOM      5  C2  <0> d          50.313 -29.328  34.580  0.00  0.00    -0.648 C 
ATOM      6  H1  <0> d          50.577 -30.323  34.224  0.00  0.00     0.000 H 
ATOM      7  C3  <0> d          48.937 -29.372  35.249  0.00  0.00    -0.655 C 
ATOM      8  C4  <0> d          48.977 -30.342  36.432  0.00  0.00    -0.553 C 
ATOM      9  H7  <0> d          48.674 -28.376  35.604  0.00  0.00     0.000 H 
ATOM     10  H8  <0> d          48.193 -29.709  34.528  0.00  0.00     0.000 H 
ATOM     11  C5  <0> d          50.022 -29.868  37.444  0.00  0.00    -0.851 C 
ATOM     12  H9  <0> d          47.997 -30.375  36.908  0.00  0.00     0.000 H 
ATOM     13  H10 <0> d          49.242 -31.338  36.076  0.00  0.00     0.000 H 
ATOM     14  C6  <0> d          51.397 -29.823  36.775  0.00  0.00    -0.155 C 
ATOM     15  H11 <0> d          49.758 -28.873  37.799  0.00  0.00     0.000 H 
ATOM     16  H12 <0> d          50.051 -30.559  38.287  0.00  0.00     0.000 H 
ATOM     17  H13 <0> d          52.141 -29.486  37.496  0.00  0.00     0.000 H 
ATOM     18  H14 <0> d          51.661 -30.820  36.420  0.00  0.00     0.000 H 
ATOM     19  H2  <0> d          52.337 -28.822  35.116  0.00  0.00     0.000 H 
BRANCH   5  20
ATOM     20  C1  <0> d          50.273 -28.358  33.397  0.00  0.00    -0.479 C 
ATOM     21  H4  <0> d          51.048 -28.627  32.680  0.00  0.00     0.000 H 
ATOM     22  H5  <0> d          49.297 -28.413  32.914  0.00  0.00     0.000 H 
ATOM     23  H6  <0> d          50.444 -27.342  33.754  0.00  0.00     0.000 H 
ENDBRANCH   5  20
ENDBRANCH   1   4
BRANCH   1  24
ATOM     24  C8  <0> d          49.912 -27.346  37.033  0.00  0.00    -0.419 C 
ATOM     25  H15 <0> d          49.009 -27.032  36.510  0.00  0.00     0.000 H 
ATOM     26  H16 <0> d          49.726 -28.293  37.540  0.00  0.00     0.000 H 
BRANCH  24  27
ATOM     27  C9  <0> d          50.301 -26.284  38.063  0.00  0.00    -0.527 C 
ATOM     28  H3  <0> d          50.925 -25.528  37.587  0.00  0.00     0.000 H 
BRANCH  27  29
ATOM     29  C10 <0> d          49.037 -25.626  38.620  0.00  0.00    -0.730 C 
ATOM     30  H17 <0> d          48.414 -26.383  39.097  0.00  0.00     0.000 H 
ATOM     31  H18 <0> d          49.315 -24.869  39.353  0.00  0.00     0.000 H 
ATOM     32  H19 <0> d          48.483 -25.158  37.807  0.00  0.00     0.000 H 
ENDBRANCH  27  29
BRANCH  27  33
ATOM     33  C11 <0> d          51.068 -26.932  39.187  0.00  0.00    -0.476 C 
ATOM     34  O1  <0> d          50.483 -27.582  40.021  0.00  0.00    -0.392 OA
BRANCH  33  35
ATOM     35  O2  <0> d          52.401 -26.787  39.262  0.00  0.00    -0.395 OA
BRANCH  35  36
ATOM     36  C12 <0> d          53.197 -27.914  38.894  0.00  0.00    -0.551 C 
ATOM     37  H20 <0> d          54.253 -27.662  38.999  0.00  0.00     0.000 H 
ATOM     38  H21 <0> d          52.958 -28.756  39.543  0.00  0.00     0.000 H 
ATOM     39  H22 <0> d          52.990 -28.183  37.858  0.00  0.00     0.000 H 
ENDBRANCH  35  36
ENDBRANCH  33  35
ENDBRANCH  27  33
ENDBRANCH  24  27
ENDBRANCH   1  24
BRANCH   2  40
ATOM     40  C14 <0> d          52.850 -26.618  34.690  0.00  0.00    -0.333 C 
ATOM     41  H23 <0> d          53.779 -26.506  35.249  0.00  0.00     0.000 H 
ATOM     42  H24 <0> d          52.811 -27.613  34.245  0.00  0.00     0.000 H 
BRANCH  40  43
ATOM     43  O4  <0> d          52.792 -25.632  33.658  0.00  0.00    -0.624 OA
BRANCH  43  44
ATOM     44  C15 <0> d          53.824 -24.648  33.736  0.00  0.00    -0.351 C 
ATOM     45  H25 <0> d          53.755 -24.121  34.688  0.00  0.00     0.000 H 
ATOM     46  H26 <0> d          54.797 -25.134  33.662  0.00  0.00     0.000 H 
ATOM     47  H27 <0> d          53.711 -23.935  32.919  0.00  0.00     0.000 H 
ENDBRANCH  43  44
ENDBRANCH  40  43
ENDBRANCH   2  40
TORSDOF 11
ENDMDL
MODEL        5
REMARK       NORMALIZED FREE ENERGY PREDICTED BY IDOCK:  -6.396 KCAL/MOL
REMARK            TOTAL FREE ENERGY PREDICTED BY IDOCK:  -7.010 KCAL/MOL
REMARK     INTER-LIGAND FREE ENERGY PREDICTED BY IDOCK:  -9.796 KCAL/MOL
REMARK     INTRA-LIGAND FREE ENERGY PREDICTED BY IDOCK:   2.785 KCAL/MOL
REMARK            LIGAND EFFICIENCY PREDICTED BY IDOCK:  -0.490 KCAL/MOL
REMARK               HYDROGEN BONDS PREDICTED BY IDOCK:   0
ROOT
ATOM      1  N1  <0> d          50.841 -27.002  36.916  0.00  0.00    -0.388 N 
ATOM      2  C13 <0> d          51.507 -25.836  36.805  0.00  0.00    -0.391 C 
ATOM      3  O3  <0> d          50.926 -24.786  36.988  0.00  0.00    -0.359 OA
ENDROOT
BRANCH   1   4
ATOM      4  C7  <0> d          51.523 -28.265  36.622  0.00  0.00    -0.418 C 
ATOM      5  C2  <0> d          50.928 -28.884  35.356  0.00  0.00    -0.521 C 
ATOM      6  H1  <0> d          51.436 -29.823  35.137  0.00  0.00     0.000 H 
ATOM      7  C3  <0> d          49.436 -29.148  35.569  0.00  0.00    -0.697 C 
ATOM      8  C4  <0> d          49.252 -30.112  36.743  0.00  0.00    -0.714 C 
ATOM      9  H7  <0> d          48.930 -28.208  35.787  0.00  0.00     0.000 H 
ATOM     10  H8  <0> d          49.012 -29.587  34.667  0.00  0.00     0.000 H 
ATOM     11  C5  <0> d          49.847 -29.493  38.009  0.00  0.00    -0.808 C 
ATOM     12  H9  <0> d          48.189 -30.300  36.895  0.00  0.00     0.000 H 
ATOM     13  H10 <0> d          49.760 -31.051  36.524  0.00  0.00     0.000 H 
ATOM     14  C6  <0> d          51.339 -29.229  37.796  0.00  0.00    -0.429 C 
ATOM     15  H11 <0> d          49.340 -28.554  38.227  0.00  0.00     0.000 H 
ATOM     16  H12 <0> d          49.716 -30.180  38.846  0.00  0.00     0.000 H 
ATOM     17  H13 <0> d          51.763 -28.789  38.697  0.00  0.00     0.000 H 
ATOM     18  H14 <0> d          51.846 -30.169  37.577  0.00  0.00     0.000 H 
ATOM     19  H2  <0> d          52.586 -28.078  36.471  0.00  0.00     0.000 H 
BRANCH   5  20
ATOM     20  C1  <0> d          51.113 -27.920  34.182  0.00  0.00    -0.527 C 
ATOM     21  H4  <0> d          52.104 -28.058  33.751  0.00  0.00     0.000 H 
ATOM     22  H5  <0> d          50.355 -28.120  33.425  0.00  0.00     0.000 H 
ATOM     23  H6  <0> d          51.010 -26.893  34.535  0.00  0.00     0.000 H 
ENDBRANCH   5  20
ENDBRANCH   1   4
BRANCH   1  24
ATOM     24  C8  <0> d          49.436 -27.008  37.330  0.00  0.00    -0.201 C 
ATOM     25  H15 <0> d          48.806 -26.733  36.484  0.00  0.00     0.000 H 
ATOM     26  H16 <0> d          49.164 -28.005  37.676  0.00  0.00     0.000 H 
BRANCH  24  27
ATOM     27  C9  <0> d          49.235 -26.002  38.464  0.00  0.00    -0.596 C 
ATOM     28  H3  <0> d          50.115 -25.363  38.544  0.00  0.00     0.000 H 
BRANCH  27  29
ATOM     29  C10 <0> d          48.005 -25.140  38.170  0.00  0.00    -0.861 C 
ATOM     30  H17 <0> d          47.126 -25.778  38.090  0.00  0.00     0.000 H 
ATOM     31  H18 <0> d          47.862 -24.423  38.978  0.00  0.00     0.000 H 
ATOM     32  H19 <0> d          48.152 -24.606  37.231  0.00  0.00     0.000 H 
ENDBRANCH  27  29
BRANCH  27  33
ATOM     33  C11 <0> d          49.031 -26.741  39.761  0.00  0.00    -0.381 C 
ATOM     34  O1  <0> d          49.983 -27.177  40.364  0.00  0.00    -0.430 OA
BRANCH  33  35
ATOM     35  O2  <0> d          47.792 -26.916  40.247  0.00  0.00    -0.491 OA
BRANCH  35  36
ATOM     36  C12 <0> d          47.682 -27.447  41.568  0.00  0.00    -0.673 C 
ATOM     37  H20 <0> d          46.630 -27.537  41.837  0.00  0.00     0.000 H 
ATOM     38  H21 <0> d          48.152 -28.430  41.606  0.00  0.00     0.000 H 
ATOM     39  H22 <0> d          48.181 -26.780  42.271  0.00  0.00     0.000 H 
ENDBRANCH  35  36
ENDBRANCH  33  35
ENDBRANCH  27  33
ENDBRANCH  24  27
ENDBRANCH   1  24
BRANCH   2  40
ATOM     40  C14 <0> d          52.972 -25.834  36.453  0.00  0.00    -0.279 C 
ATOM     41  H23 <0> d          53.511 -25.189  37.146  0.00  0.00     0.000 H 
ATOM     42  H24 <0> d          53.363 -26.849  36.521  0.00  0.00     0.000 H 
BRANCH  40  43
ATOM     43  O4  <0> d          53.141 -25.347  35.120  0.00  0.00    -0.315 OA
BRANCH  43  44
ATOM     44  C15 <0> d          53.653 -24.015  35.048  0.00  0.00    -0.316 C 
ATOM     45  H25 <0> d          52.968 -23.334  35.555  0.00  0.00     0.000 H 
ATOM     46  H26 <0> d          54.629 -23.974  35.532  0.00  0.00     0.000 H 
ATOM     47  H27 <0> d          53.752 -23.719  34.004  0.00  0.00     0.000 H 
ENDBRANCH  43  44
ENDBRANCH  40  43
ENDBRANCH   2  40
TORSDOF 11
ENDMDL
MODEL        6
REMARK       NORMALIZED FREE ENERGY PREDICTED BY IDOCK:  -6.262 KCAL/MOL
REMARK            TOTAL FREE ENERGY PREDICTED BY IDOCK:  -6.806 KCAL/MOL
REMARK     INTER-LIGAND FREE ENERGY PREDICTED BY IDOCK:  -9.943 KCAL/MOL
REMARK     INTRA-LIGAND FREE ENERGY PREDICTED BY IDOCK:   3.138 KCAL/MOL
REMARK            LIGAND EFFICIENCY PREDICTED BY IDOCK:  -0.497 KCAL/MOL
REMARK               HYDROGEN BONDS PREDICTED BY IDOCK:   1 | A:TYR318:OH - O1
ROOT
ATOM      1  N1  <0> d          50.808 -26.133  36.978  0.00  0.00    -0.399 N 
ATOM      2  C13 <0> d          51.510 -25.648  35.935  0.00  0.00    -0.346 C 
ATOM      3  O3  <0> d          51.590 -26.289  34.907  0.00  0.00    -0.422 OA
ENDROOT
BRANCH   1   4
ATOM      4  C7  <0> d          50.773 -25.395  38.243  0.00  0.00    -0.420 C 
ATOM      5  C2  <0> d          50.581 -26.376  39.401  0.00  0.00    -0.512 C 
ATOM      6  H1  <0> d          50.555 -25.827  40.342  0.00  0.00     0.000 H 
ATOM      7  C3  <0> d          49.264 -27.132  39.215  0.00  0.00    -0.537 C 
ATOM      8  C4  <0> d          48.103 -26.135  39.192  0.00  0.00    -0.683 C 
ATOM      9  H7  <0> d          49.290 -27.681  38.274  0.00  0.00     0.000 H 
ATOM     10  H8  <0> d          49.126 -27.832  40.039  0.00  0.00     0.000 H 
ATOM     11  C5  <0> d          48.295 -25.155  38.035  0.00  0.00    -0.892 C 
ATOM     12  H9  <0> d          47.164 -26.674  39.060  0.00  0.00     0.000 H 
ATOM     13  H10 <0> d          48.077 -25.587  40.134  0.00  0.00     0.000 H 
ATOM     14  C6  <0> d          49.612 -24.399  38.220  0.00  0.00    -0.764 C 
ATOM     15  H11 <0> d          48.322 -25.703  37.094  0.00  0.00     0.000 H 
ATOM     16  H12 <0> d          47.468 -24.444  38.018  0.00  0.00     0.000 H 
ATOM     17  H13 <0> d          49.750 -23.700  37.396  0.00  0.00     0.000 H 
ATOM     18  H14 <0> d          49.586 -23.849  39.162  0.00  0.00     0.000 H 
ATOM     19  H2  <0> d          51.711 -24.855  38.376  0.00  0.00     0.000 H 
BRANCH   5  20
ATOM     20  C1  <0> d          51.742 -27.372  39.424  0.00  0.00    -0.539 C 
ATOM     21  H4  <0> d          52.581 -26.939  39.967  0.00  0.00     0.000 H 
ATOM     22  H5  <0> d          51.423 -28.290  39.918  0.00  0.00     0.000 H 
ATOM     23  H6  <0> d          52.047 -27.597  38.402  0.00  0.00     0.000 H 
ENDBRANCH   5  20
ENDBRANCH   1   4
BRANCH   1  24
ATOM     24  C8  <0> d          50.080 -27.397  36.848  0.00  0.00    -0.442 C 
ATOM     25  H15 <0> d          49.990 -27.868  37.827  0.00  0.00     0.000 H 
ATOM     26  H16 <0> d          49.087 -27.204  36.445  0.00  0.00     0.000 H 
BRANCH  24  27
ATOM     27  C9  <0> d          50.842 -28.328  35.903  0.00  0.00    -0.510 C 
ATOM     28  H3  <0> d          51.301 -27.742  35.106  0.00  0.00     0.000 H 
BRANCH  27  29
ATOM     29  C10 <0> d          51.930 -29.069  36.683  0.00  0.00    -0.522 C 
ATOM     30  H17 <0> d          51.470 -29.656  37.478  0.00  0.00     0.000 H 
ATOM     31  H18 <0> d          52.472 -29.732  36.010  0.00  0.00     0.000 H 
ATOM     32  H19 <0> d          52.621 -28.347  37.117  0.00  0.00     0.000 H 
ENDBRANCH  27  29
BRANCH  27  33
ATOM     33  C11 <0> d          49.886 -29.326  35.303  0.00  0.00    -0.426 C 
ATOM     34  O1  <0> d          48.919 -28.943  34.687  0.00  0.00    -0.742 OA
BRANCH  33  35
ATOM     35  O2  <0> d          50.107 -30.642  35.453  0.00  0.00    -0.419 OA
BRANCH  35  36
ATOM     36  C12 <0> d          49.027 -31.428  35.959  0.00  0.00    -0.589 C 
ATOM     37  H20 <0> d          49.339 -32.471  36.030  0.00  0.00     0.000 H 
ATOM     38  H21 <0> d          48.744 -31.066  36.946  0.00  0.00     0.000 H 
ATOM     39  H22 <0> d          48.174 -31.350  35.285  0.00  0.00     0.000 H 
ENDBRANCH  35  36
ENDBRANCH  33  35
ENDBRANCH  27  33
ENDBRANCH  24  27
ENDBRANCH   1  24
BRANCH   2  40
ATOM     40  C14 <0> d          52.196 -24.310  36.044  0.00  0.00    -0.132 C 
ATOM     41  H23 <0> d          52.305 -23.876  35.050  0.00  0.00     0.000 H 
ATOM     42  H24 <0> d          51.599 -23.646  36.668  0.00  0.00     0.000 H 
BRANCH  40  43
ATOM     43  O4  <0> d          53.487 -24.484  36.632  0.00  0.00    -0.327 OA
BRANCH  43  44
ATOM     44  C15 <0> d          53.775 -23.562  37.685  0.00  0.00    -0.321 C 
ATOM     45  H25 <0> d          53.731 -22.543  37.299  0.00  0.00     0.000 H 
ATOM     46  H26 <0> d          53.040 -23.679  38.481  0.00  0.00     0.000 H 
ATOM     47  H27 <0> d          54.772 -23.758  38.079  0.00  0.00     0.000 H 
ENDBRANCH  43  44
ENDBRANCH  40  43
ENDBRANCH   2  40
TORSDOF 11
ENDMDL
MODEL        7
REMARK       NORMALIZED FREE ENERGY PREDICTED BY IDOCK:  -6.219 KCAL/MOL
REMARK            TOTAL FREE ENERGY PREDICTED BY IDOCK:  -6.739 KCAL/MOL
REMARK     INTER-LIGAND FREE ENERGY PREDICTED BY IDOCK:  -9.257 KCAL/MOL
REMARK     INTRA-LIGAND FREE ENERGY PREDICTED BY IDOCK:   2.517 KCAL/MOL
REMARK            LIGAND EFFICIENCY PREDICTED BY IDOCK:  -0.463 KCAL/MOL
REMARK               HYDROGEN BONDS PREDICTED BY IDOCK:   0
ROOT
ATOM      1  N1  <0> d          50.368 -29.434  36.706  0.00  0.00    -0.443 N 
ATOM      2  C13 <0> d          50.164 -29.293  38.031  0.00  0.00    -0.542 C 
ATOM      3  O3  <0> d          51.098 -29.041  38.764  0.00  0.00    -0.347 OA
ENDROOT
BRANCH   1   4
ATOM      4  C7  <0> d          49.255 -29.811  35.831  0.00  0.00    -0.478 C 
ATOM      5  C2  <0> d          49.481 -31.227  35.298  0.00  0.00    -0.654 C 
ATOM      6  H1  <0> d          48.653 -31.507  34.647  0.00  0.00     0.000 H 
ATOM      7  C3  <0> d          50.790 -31.271  34.507  0.00  0.00    -0.773 C 
ATOM      8  C4  <0> d          50.710 -30.292  33.334  0.00  0.00    -0.697 C 
ATOM      9  H7  <0> d          51.617 -30.991  35.159  0.00  0.00     0.000 H 
ATOM     10  H8  <0> d          50.952 -32.280  34.128  0.00  0.00     0.000 H 
ATOM     11  C5  <0> d          50.484 -28.876  33.867  0.00  0.00    -0.743 C 
ATOM     12  H9  <0> d          51.643 -30.323  32.770  0.00  0.00     0.000 H 
ATOM     13  H10 <0> d          49.882 -30.572  32.683  0.00  0.00     0.000 H 
ATOM     14  C6  <0> d          49.175 -28.831  34.658  0.00  0.00    -0.586 C 
ATOM     15  H11 <0> d          51.311 -28.596  34.518  0.00  0.00     0.000 H 
ATOM     16  H12 <0> d          50.427 -28.177  33.031  0.00  0.00     0.000 H 
ATOM     17  H13 <0> d          49.013 -27.823  35.038  0.00  0.00     0.000 H 
ATOM     18  H14 <0> d          48.347 -29.111  34.006  0.00  0.00     0.000 H 
ATOM     19  H2  <0> d          48.322 -29.779  36.394  0.00  0.00     0.000 H 
BRANCH   5  20
ATOM     20  C1  <0> d          49.561 -32.206  36.471  0.00  0.00    -0.717 C 
ATOM     21  H4  <0> d          48.555 -32.507  36.762  0.00  0.00     0.000 H 
ATOM     22  H5  <0> d          50.131 -33.086  36.172  0.00  0.00     0.000 H 
ATOM     23  H6  <0> d          50.055 -31.723  37.314  0.00  0.00     0.000 H 
ENDBRANCH   5  20
ENDBRANCH   1   4
BRANCH   1  24
ATOM     24  C8  <0> d          51.701 -29.213  36.142  0.00  0.00    -0.412 C 
ATOM     25  H15 <0> d          52.299 -30.117  36.255  0.00  0.00     0.000 H 
ATOM     26  H16 <0> d          51.611 -28.968  35.084  0.00  0.00     0.000 H 
BRANCH  24  27
ATOM     27  C9  <0> d          52.380 -28.056  36.877  0.00  0.00    -0.593 C 
ATOM     28  H3  <0> d          51.951 -27.958  37.875  0.00  0.00     0.000 H 
BRANCH  27  29
ATOM     29  C10 <0> d          53.880 -28.334  36.991  0.00  0.00    -0.186 C 
ATOM     30  H17 <0> d          54.308 -28.431  35.994  0.00  0.00     0.000 H 
ATOM     31  H18 <0> d          54.364 -27.510  37.515  0.00  0.00     0.000 H 
ATOM     32  H19 <0> d          54.037 -29.259  37.545  0.00  0.00     0.000 H 
ENDBRANCH  27  29
BRANCH  27  33
ATOM     33  C11 <0> d          52.163 -26.777  36.110  0.00  0.00    -0.364 C 
ATOM     34  O1  <0> d          51.237 -26.054  36.390  0.00  0.00    -0.410 OA
BRANCH  33  35
ATOM     35  O2  <0> d          52.999 -26.441  35.114  0.00  0.00    -0.386 OA
BRANCH  35  36
ATOM     36  C12 <0> d          52.450 -25.686  34.033  0.00  0.00    -0.383 C 
ATOM     37  H20 <0> d          53.230 -25.482  33.299  0.00  0.00     0.000 H 
ATOM     38  H21 <0> d          51.649 -26.255  33.562  0.00  0.00     0.000 H 
ATOM     39  H22 <0> d          52.053 -24.745  34.412  0.00  0.00     0.000 H 
ENDBRANCH  35  36
ENDBRANCH  33  35
ENDBRANCH  27  33
ENDBRANCH  24  27
ENDBRANCH   1  24
BRANCH   2  40
ATOM     40  C14 <0> d          48.778 -29.446  38.602  0.00  0.00     0.349 C 
ATOM     41  H23 <0> d          48.095 -28.775  38.081  0.00  0.00     0.000 H 
ATOM     42  H24 <0> d          48.444 -30.476  38.474  0.00  0.00     0.000 H 
BRANCH  40  43
ATOM     43  O4  <0> d          48.797 -29.121  39.993  0.00  0.00    -0.465 OA
BRANCH  43  44
ATOM     44  C15 <0> d          47.595 -28.510  40.464  0.00  0.00    -0.428 C 
ATOM     45  H25 <0> d          47.421 -27.582  39.919  0.00  0.00     0.000 H 
ATOM     46  H26 <0> d          46.756 -29.187  40.304  0.00  0.00     0.000 H 
ATOM     47  H27 <0> d          47.689 -28.294  41.528  0.00  0.00     0.000 H 
ENDBRANCH  43  44
ENDBRANCH  40  43
ENDBRANCH   2  40
TORSDOF 11
ENDMDL
MODEL        8
REMARK       NORMALIZED FREE ENERGY PREDICTED BY IDOCK:  -6.123 KCAL/MOL
REMARK            TOTAL FREE ENERGY PREDICTED BY IDOCK:  -6.593 KCAL/MOL
REMARK     INTER-LIGAND FREE ENERGY PREDICTED BY IDOCK:  -9.335 KCAL/MOL
REMARK     INTRA-LIGAND FREE ENERGY PREDICTED BY IDOCK:   2.742 KCAL/MOL
REMARK            LIGAND EFFICIENCY PREDICTED BY IDOCK:  -0.467 KCAL/MOL
REMARK               HYDROGEN BONDS PREDICTED BY IDOCK:   0
ROOT
ATOM      1  N1  <0> d          50.729 -28.405  36.918  0.00  0.00    -0.410 N 
ATOM      2  C13 <0> d          49.926 -29.440  37.233  0.00  0.00    -0.500 C 
ATOM      3  O3  <0> d          48.969 -29.265  37.958  0.00  0.00    -0.133 OA
ENDROOT
BRANCH   1   4
ATOM      4  C7  <0> d          51.926 -28.628  36.104  0.00  0.00    -0.466 C 
ATOM      5  C2  <0> d          53.146 -28.044  36.818  0.00  0.00    -0.596 C 
ATOM      6  H1  <0> d          54.037 -28.211  36.212  0.00  0.00     0.000 H 
ATOM      7  C3  <0> d          52.945 -26.542  37.026  0.00  0.00    -0.299 C 
ATOM      8  C4  <0> d          52.773 -25.858  35.668  0.00  0.00    -0.545 C 
ATOM      9  H7  <0> d          52.054 -26.376  37.632  0.00  0.00     0.000 H 
ATOM     10  H8  <0> d          53.813 -26.125  37.535  0.00  0.00     0.000 H 
ATOM     11  C5  <0> d          51.553 -26.442  34.954  0.00  0.00    -0.530 C 
ATOM     12  H9  <0> d          52.629 -24.787  35.816  0.00  0.00     0.000 H 
ATOM     13  H10 <0> d          53.663 -26.025  35.062  0.00  0.00     0.000 H 
ATOM     14  C6  <0> d          51.754 -27.944  34.746  0.00  0.00    -0.544 C 
ATOM     15  H11 <0> d          50.663 -26.276  35.559  0.00  0.00     0.000 H 
ATOM     16  H12 <0> d          51.430 -25.955  33.986  0.00  0.00     0.000 H 
ATOM     17  H13 <0> d          50.886 -28.361  34.237  0.00  0.00     0.000 H 
ATOM     18  H14 <0> d          52.645 -28.111  34.139  0.00  0.00     0.000 H 
ATOM     19  H2  <0> d          52.070 -29.699  35.955  0.00  0.00     0.000 H 
BRANCH   5  20
ATOM     20  C1  <0> d          53.318 -28.728  38.176  0.00  0.00    -0.602 C 
ATOM     21  H4  <0> d          53.874 -29.657  38.047  0.00  0.00     0.000 H 
ATOM     22  H5  <0> d          53.865 -28.068  38.848  0.00  0.00     0.000 H 
ATOM     23  H6  <0> d          52.338 -28.946  38.599  0.00  0.00     0.000 H 
ENDBRANCH   5  20
ENDBRANCH   1   4
BRANCH   1  24
ATOM     24  C8  <0> d          50.407 -27.056  37.390  0.00  0.00    -0.425 C 
ATOM     25  H15 <0> d          51.323 -26.472  37.477  0.00  0.00     0.000 H 
ATOM     26  H16 <0> d          49.735 -26.574  36.680  0.00  0.00     0.000 H 
BRANCH  24  27
ATOM     27  C9  <0> d          49.726 -27.144  38.757  0.00  0.00    -0.512 C 
ATOM     28  H3  <0> d          49.195 -28.093  38.839  0.00  0.00     0.000 H 
BRANCH  27  29
ATOM     29  C10 <0> d          50.783 -27.055  39.860  0.00  0.00    -0.643 C 
ATOM     30  H17 <0> d          51.313 -26.107  39.779  0.00  0.00     0.000 H 
ATOM     31  H18 <0> d          50.299 -27.118  40.834  0.00  0.00     0.000 H 
ATOM     32  H19 <0> d          51.490 -27.877  39.752  0.00  0.00     0.000 H 
ENDBRANCH  27  29
BRANCH  27  33
ATOM     33  C11 <0> d          48.749 -26.007  38.906  0.00  0.00    -0.366 C 
ATOM     34  O1  <0> d          47.976 -25.991  39.835  0.00  0.00    -0.567 OA
BRANCH  33  35
ATOM     35  O2  <0> d          48.736 -25.010  38.006  0.00  0.00    -0.338 OA
BRANCH  35  36
ATOM     36  C12 <0> d          48.807 -23.677  38.513  0.00  0.00    -0.598 C 
ATOM     37  H20 <0> d          48.789 -22.971  37.683  0.00  0.00     0.000 H 
ATOM     38  H21 <0> d          47.956 -23.491  39.167  0.00  0.00     0.000 H 
ATOM     39  H22 <0> d          49.732 -23.551  39.076  0.00  0.00     0.000 H 
ENDBRANCH  35  36
ENDBRANCH  33  35
ENDBRANCH  27  33
ENDBRANCH  24  27
ENDBRANCH   1  24
BRANCH   2  40
ATOM     40  C14 <0> d          50.215 -30.813  36.684  0.00  0.00    -0.251 C 
ATOM     41  H23 <0> d          51.292 -30.981  36.675  0.00  0.00     0.000 H 
ATOM     42  H24 <0> d          49.736 -31.564  37.313  0.00  0.00     0.000 H 
BRANCH  40  43
ATOM     43  O4  <0> d          49.706 -30.911  35.353  0.00  0.00    -0.468 OA
BRANCH  43  44
ATOM     44  C15 <0> d          50.626 -31.478  34.419  0.00  0.00    -0.541 C 
ATOM     45  H25 <0> d          51.525 -30.863  34.375  0.00  0.00     0.000 H 
ATOM     46  H26 <0> d          50.892 -32.486  34.736  0.00  0.00     0.000 H 
ATOM     47  H27 <0> d          50.165 -31.518  33.432  0.00  0.00     0.000 H 
ENDBRANCH  43  44
ENDBRANCH  40  43
ENDBRANCH   2  40
TORSDOF 11
ENDMDL
MODEL        9
REMARK       NORMALIZED FREE ENERGY PREDICTED BY IDOCK:  -6.095 KCAL/MOL
REMARK            TOTAL FREE ENERGY PREDICTED BY IDOCK:  -6.550 KCAL/MOL
REMARK     INTER-LIGAND FREE ENERGY PREDICTED BY IDOCK:  -9.499 KCAL/MOL
REMARK     INTRA-LIGAND FREE ENERGY PREDICTED BY IDOCK:   2.950 KCAL/MOL
REMARK            LIGAND EFFICIENCY PREDICTED BY IDOCK:  -0.475 KCAL/MOL
REMARK               HYDROGEN BONDS PREDICTED BY IDOCK:   0
ROOT
ATOM      1  N1  <0> d          50.452 -27.795  37.693  0.00  0.00    -0.389 N 
ATOM      2  C13 <0> d          49.876 -27.710  38.909  0.00  0.00    -0.374 C 
ATOM      3  O3  <0> d          49.633 -26.623  39.391  0.00  0.00    -0.384 OA
ENDROOT
BRANCH   1   4
ATOM      4  C7  <0> d          50.813 -29.104  37.143  0.00  0.00    -0.477 C 
ATOM      5  C2  <0> d          51.920 -28.932  36.102  0.00  0.00    -0.557 C 
ATOM      6  H1  <0> d          52.189 -29.906  35.693  0.00  0.00     0.000 H 
ATOM      7  C3  <0> d          51.424 -28.025  34.974  0.00  0.00    -0.579 C 
ATOM      8  C4  <0> d          50.196 -28.657  34.315  0.00  0.00    -0.731 C 
ATOM      9  H7  <0> d          51.156 -27.051  35.384  0.00  0.00     0.000 H 
ATOM     10  H8  <0> d          52.212 -27.901  34.233  0.00  0.00     0.000 H 
ATOM     11  C5  <0> d          49.090 -28.828  35.356  0.00  0.00    -0.652 C 
ATOM     12  H9  <0> d          49.843 -28.010  33.511  0.00  0.00     0.000 H 
ATOM     13  H10 <0> d          50.465 -29.631  33.906  0.00  0.00     0.000 H 
ATOM     14  C6  <0> d          49.586 -29.736  36.484  0.00  0.00    -0.701 C 
ATOM     15  H11 <0> d          48.821 -27.855  35.765  0.00  0.00     0.000 H 
ATOM     16  H12 <0> d          48.215 -29.279  34.887  0.00  0.00     0.000 H 
ATOM     17  H13 <0> d          48.798 -29.858  37.226  0.00  0.00     0.000 H 
ATOM     18  H14 <0> d          49.855 -30.710  36.075  0.00  0.00     0.000 H 
ATOM     19  H2  <0> d          51.167 -29.751  37.947  0.00  0.00     0.000 H 
BRANCH   5  20
ATOM     20  C1  <0> d          53.148 -28.300  36.762  0.00  0.00    -0.674 C 
ATOM     21  H4  <0> d          53.749 -29.078  37.231  0.00  0.00     0.000 H 
ATOM     22  H5  <0> d          53.743 -27.787  36.006  0.00  0.00     0.000 H 
ATOM     23  H6  <0> d          52.825 -27.583  37.518  0.00  0.00     0.000 H 
ENDBRANCH   5  20
ENDBRANCH   1   4
BRANCH   1  24
ATOM     24  C8  <0> d          50.718 -26.578  36.922  0.00  0.00    -0.408 C 
ATOM     25  H15 <0> d          51.494 -26.777  36.184  0.00  0.00     0.000 H 
ATOM     26  H16 <0> d          49.806 -26.265  36.414  0.00  0.00     0.000 H 
BRANCH  24  27
ATOM     27  C9  <0> d          51.183 -25.468  37.866  0.00  0.00    -0.534 C 
ATOM     28  H3  <0> d          50.771 -25.639  38.860  0.00  0.00     0.000 H 
BRANCH  27  29
ATOM     29  C10 <0> d          52.712 -25.470  37.941  0.00  0.00    -0.476 C 
ATOM     30  H17 <0> d          53.124 -25.298  36.946  0.00  0.00     0.000 H 
ATOM     31  H18 <0> d          53.044 -24.679  38.612  0.00  0.00     0.000 H 
ATOM     32  H19 <0> d          53.056 -26.433  38.315  0.00  0.00     0.000 H 
ENDBRANCH  27  29
BRANCH  27  33
ATOM     33  C11 <0> d          50.707 -24.136  37.347  0.00  0.00    -0.293 C 
ATOM     34  O1  <0> d          51.504 -23.256  37.119  0.00  0.00    -0.268 OA
BRANCH  33  35
ATOM     35  O2  <0> d          49.398 -23.925  37.138  0.00  0.00    -0.200 OA
BRANCH  35  36
ATOM     36  C12 <0> d          48.629 -23.464  38.250  0.00  0.00    -0.508 C 
ATOM     37  H20 <0> d          47.591 -23.335  37.945  0.00  0.00     0.000 H 
ATOM     38  H21 <0> d          48.683 -24.195  39.057  0.00  0.00     0.000 H 
ATOM     39  H22 <0> d          49.027 -22.511  38.597  0.00  0.00     0.000 H 
ENDBRANCH  35  36
ENDBRANCH  33  35
ENDBRANCH  27  33
ENDBRANCH  24  27
ENDBRANCH   1  24
BRANCH   2  40
ATOM     40  C14 <0> d          49.534 -28.965  39.670  0.00  0.00    -0.551 C 
ATOM     41  H23 <0> d          49.896 -29.834  39.119  0.00  0.00     0.000 H 
ATOM     42  H24 <0> d          50.005 -28.935  40.652  0.00  0.00     0.000 H 
BRANCH  40  43
ATOM     43  O4  <0> d          48.116 -29.056  39.825  0.00  0.00    -0.268 OA
BRANCH  43  44
ATOM     44  C15 <0> d          47.653 -28.735  41.138  0.00  0.00    -0.476 C 
ATOM     45  H25 <0> d          48.100 -29.420  41.859  0.00  0.00     0.000 H 
ATOM     46  H26 <0> d          47.939 -27.713  41.384  0.00  0.00     0.000 H 
ATOM     47  H27 <0> d          46.568 -28.828  41.174  0.00  0.00     0.000 H 
ENDBRANCH  43  44
ENDBRANCH  40  43
ENDBRANCH   2  40
TORSDOF 11
ENDMDL
